data_image0
_chemical_formula_structural       Ce224O448
_chemical_formula_sum              "Ce224 O448"
_cell_length_a       15.4643
_cell_length_b       15.4643
_cell_length_c       167.316
_cell_angle_alpha    89.338
_cell_angle_beta     89.338
_cell_angle_gamma    60

_space_group_name_H-M_alt    "P 1"
_space_group_IT_number       1

loop_
  _space_group_symop_operation_xyz
  'x, y, z'

loop_
  _atom_site_type_symbol
  _atom_site_label
  _atom_site_symmetry_multiplicity
  _atom_site_fract_x
  _atom_site_fract_y
  _atom_site_fract_z
  _atom_site_occupancy
  Ce  Ce1       1.0  0.16746  0.16745  0.99145  1.0000
  Ce  Ce2       1.0  0.16746  0.41746  0.99145  1.0000
  Ce  Ce3       1.0  0.16746  0.66746  0.99145  1.0000
  Ce  Ce4       1.0  0.16746  0.91746  0.99145  1.0000
  Ce  Ce5       1.0  0.41746  0.16745  0.99145  1.0000
  Ce  Ce6       1.0  0.41746  0.41746  0.99145  1.0000
  Ce  Ce7       1.0  0.41746  0.66746  0.99145  1.0000
  Ce  Ce8       1.0  0.41746  0.91746  0.99145  1.0000
  Ce  Ce9       1.0  0.66746  0.16745  0.99145  1.0000
  Ce  Ce10      1.0  0.66746  0.41746  0.99145  1.0000
  Ce  Ce11      1.0  0.66746  0.66746  0.99145  1.0000
  Ce  Ce12      1.0  0.66746  0.91746  0.99145  1.0000
  Ce  Ce13      1.0  0.91746  0.16745  0.99145  1.0000
  Ce  Ce14      1.0  0.91746  0.41746  0.99145  1.0000
  Ce  Ce15      1.0  0.91746  0.66746  0.99145  1.0000
  Ce  Ce16      1.0  0.91746  0.91746  0.99145  1.0000
  Ce  Ce17      1.0  0.00202  0.00202  0.97243  1.0000
  Ce  Ce18      1.0  0.00202  0.25202  0.97243  1.0000
  Ce  Ce19      1.0  0.00202  0.50202  0.97243  1.0000
  Ce  Ce20      1.0  0.00201  0.75203  0.97243  1.0000
  Ce  Ce21      1.0  0.25202  0.00202  0.97243  1.0000
  Ce  Ce22      1.0  0.25202  0.25202  0.97243  1.0000
  Ce  Ce23      1.0  0.25202  0.50202  0.97243  1.0000
  Ce  Ce24      1.0  0.25201  0.75203  0.97243  1.0000
  Ce  Ce25      1.0  0.50202  0.00202  0.97243  1.0000
  Ce  Ce26      1.0  0.50202  0.25202  0.97243  1.0000
  Ce  Ce27      1.0  0.50202  0.50202  0.97243  1.0000
  Ce  Ce28      1.0  0.50201  0.75203  0.97243  1.0000
  Ce  Ce29      1.0  0.75202  0.00202  0.97243  1.0000
  Ce  Ce30      1.0  0.75202  0.25202  0.97243  1.0000
  Ce  Ce31      1.0  0.75202  0.50202  0.97243  1.0000
  Ce  Ce32      1.0  0.75202  0.75203  0.97243  1.0000
  Ce  Ce33      1.0  0.08689  0.08711  0.95350  1.0000
  Ce  Ce34      1.0  0.08696  0.33706  0.95350  1.0000
  Ce  Ce35      1.0  0.08697  0.58705  0.95350  1.0000
  Ce  Ce36      1.0  0.08690  0.83710  0.95350  1.0000
  Ce  Ce37      1.0  0.33689  0.08711  0.95350  1.0000
  Ce  Ce38      1.0  0.33696  0.33706  0.95350  1.0000
  Ce  Ce39      1.0  0.33697  0.58705  0.95350  1.0000
  Ce  Ce40      1.0  0.33690  0.83710  0.95350  1.0000
  Ce  Ce41      1.0  0.58689  0.08711  0.95350  1.0000
  Ce  Ce42      1.0  0.58696  0.33706  0.95350  1.0000
  Ce  Ce43      1.0  0.58697  0.58705  0.95350  1.0000
  Ce  Ce44      1.0  0.58690  0.83710  0.95350  1.0000
  Ce  Ce45      1.0  0.83689  0.08711  0.95350  1.0000
  Ce  Ce46      1.0  0.83696  0.33706  0.95350  1.0000
  Ce  Ce47      1.0  0.83697  0.58705  0.95350  1.0000
  Ce  Ce48      1.0  0.83690  0.83710  0.95350  1.0000
  Ce  Ce49      1.0  0.17160  0.17217  0.93449  1.0000
  Ce  Ce50      1.0  0.17170  0.42210  0.93450  1.0000
  Ce  Ce51      1.0  0.17172  0.67209  0.93450  1.0000
  Ce  Ce52      1.0  0.17160  0.92217  0.93450  1.0000
  Ce  Ce53      1.0  0.42159  0.17217  0.93449  1.0000
  Ce  Ce54      1.0  0.42170  0.42210  0.93450  1.0000
  Ce  Ce55      1.0  0.42172  0.67209  0.93450  1.0000
  Ce  Ce56      1.0  0.42160  0.92217  0.93450  1.0000
  Ce  Ce57      1.0  0.67160  0.17217  0.93449  1.0000
  Ce  Ce58      1.0  0.67170  0.42210  0.93450  1.0000
  Ce  Ce59      1.0  0.67172  0.67209  0.93450  1.0000
  Ce  Ce60      1.0  0.67160  0.92217  0.93450  1.0000
  Ce  Ce61      1.0  0.92160  0.17217  0.93449  1.0000
  Ce  Ce62      1.0  0.92171  0.42210  0.93450  1.0000
  Ce  Ce63      1.0  0.92172  0.67209  0.93450  1.0000
  Ce  Ce64      1.0  0.92160  0.92217  0.93450  1.0000
  Ce  Ce65      1.0  0.00642  0.00717  0.91550  1.0000
  Ce  Ce66      1.0  0.00643  0.25716  0.91550  1.0000
  Ce  Ce67      1.0  0.00652  0.50711  0.91551  1.0000
  Ce  Ce68      1.0  0.00649  0.75713  0.91551  1.0000
  Ce  Ce69      1.0  0.25642  0.00717  0.91550  1.0000
  Ce  Ce70      1.0  0.25643  0.25716  0.91550  1.0000
  Ce  Ce71      1.0  0.25652  0.50711  0.91551  1.0000
  Ce  Ce72      1.0  0.25649  0.75713  0.91551  1.0000
  Ce  Ce73      1.0  0.50642  0.00717  0.91550  1.0000
  Ce  Ce74      1.0  0.50643  0.25716  0.91550  1.0000
  Ce  Ce75      1.0  0.50652  0.50711  0.91551  1.0000
  Ce  Ce76      1.0  0.50649  0.75713  0.91551  1.0000
  Ce  Ce77      1.0  0.75642  0.00717  0.91550  1.0000
  Ce  Ce78      1.0  0.75643  0.25716  0.91550  1.0000
  Ce  Ce79      1.0  0.75652  0.50711  0.91551  1.0000
  Ce  Ce80      1.0  0.75649  0.75713  0.91551  1.0000
  Ce  Ce81      1.0  0.09122  0.09214  0.89648  1.0000
  Ce  Ce82      1.0  0.09121  0.34217  0.89649  1.0000
  Ce  Ce83      1.0  0.09123  0.59219  0.89649  1.0000
  Ce  Ce84      1.0  0.09123  0.84216  0.89649  1.0000
  Ce  Ce85      1.0  0.34122  0.09214  0.89648  1.0000
  Ce  Ce86      1.0  0.34121  0.34217  0.89649  1.0000
  Ce  Ce87      1.0  0.34123  0.59219  0.89649  1.0000
  Ce  Ce88      1.0  0.34123  0.84216  0.89649  1.0000
  Ce  Ce89      1.0  0.59122  0.09214  0.89648  1.0000
  Ce  Ce90      1.0  0.59121  0.34217  0.89649  1.0000
  Ce  Ce91      1.0  0.59123  0.59219  0.89649  1.0000
  Ce  Ce92      1.0  0.59123  0.84216  0.89649  1.0000
  Ce  Ce93      1.0  0.84122  0.09214  0.89648  1.0000
  Ce  Ce94      1.0  0.84121  0.34217  0.89649  1.0000
  Ce  Ce95      1.0  0.84123  0.59219  0.89649  1.0000
  Ce  Ce96      1.0  0.84123  0.84216  0.89649  1.0000
  Ce  Ce97      1.0  0.17616  0.17675  0.87746  1.0000
  Ce  Ce98      1.0  0.17621  0.42671  0.87746  1.0000
  Ce  Ce99      1.0  0.17623  0.67667  0.87746  1.0000
  Ce  Ce100     1.0  0.17619  0.92671  0.87746  1.0000
  Ce  Ce101     1.0  0.42617  0.17675  0.87746  1.0000
  Ce  Ce102     1.0  0.42620  0.42672  0.87746  1.0000
  Ce  Ce103     1.0  0.42623  0.67667  0.87746  1.0000
  Ce  Ce104     1.0  0.42619  0.92670  0.87746  1.0000
  Ce  Ce105     1.0  0.67616  0.17676  0.87746  1.0000
  Ce  Ce106     1.0  0.67620  0.42672  0.87746  1.0000
  Ce  Ce107     1.0  0.67624  0.67667  0.87746  1.0000
  Ce  Ce108     1.0  0.67619  0.92670  0.87746  1.0000
  Ce  Ce109     1.0  0.92616  0.17676  0.87746  1.0000
  Ce  Ce110     1.0  0.92620  0.42671  0.87746  1.0000
  Ce  Ce111     1.0  0.92624  0.67667  0.87746  1.0000
  Ce  Ce112     1.0  0.92619  0.92671  0.87746  1.0000
  Ce  Ce113     1.0  0.01124  0.01179  0.85845  1.0000
  Ce  Ce114     1.0  0.01126  0.26178  0.85845  1.0000
  Ce  Ce115     1.0  0.01146  0.51165  0.85846  1.0000
  Ce  Ce116     1.0  0.01136  0.76172  0.85846  1.0000
  Ce  Ce117     1.0  0.26124  0.01179  0.85845  1.0000
  Ce  Ce118     1.0  0.26126  0.26178  0.85845  1.0000
  Ce  Ce119     1.0  0.26146  0.51165  0.85846  1.0000
  Ce  Ce120     1.0  0.26136  0.76172  0.85846  1.0000
  Ce  Ce121     1.0  0.51125  0.01179  0.85845  1.0000
  Ce  Ce122     1.0  0.51126  0.26178  0.85845  1.0000
  Ce  Ce123     1.0  0.51146  0.51165  0.85846  1.0000
  Ce  Ce124     1.0  0.51136  0.76171  0.85846  1.0000
  Ce  Ce125     1.0  0.76124  0.01179  0.85845  1.0000
  Ce  Ce126     1.0  0.76126  0.26178  0.85845  1.0000
  Ce  Ce127     1.0  0.76146  0.51165  0.85846  1.0000
  Ce  Ce128     1.0  0.76136  0.76171  0.85846  1.0000
  Ce  Ce129     1.0  0.09615  0.09675  0.83944  1.0000
  Ce  Ce130     1.0  0.09624  0.34665  0.83944  1.0000
  Ce  Ce131     1.0  0.09668  0.59645  0.83945  1.0000
  Ce  Ce132     1.0  0.09628  0.84662  0.83945  1.0000
  Ce  Ce133     1.0  0.34615  0.09675  0.83944  1.0000
  Ce  Ce134     1.0  0.34624  0.34664  0.83944  1.0000
  Ce  Ce135     1.0  0.34668  0.59645  0.83945  1.0000
  Ce  Ce136     1.0  0.34628  0.84661  0.83945  1.0000
  Ce  Ce137     1.0  0.59615  0.09675  0.83944  1.0000
  Ce  Ce138     1.0  0.59624  0.34664  0.83944  1.0000
  Ce  Ce139     1.0  0.59669  0.59644  0.83945  1.0000
  Ce  Ce140     1.0  0.59628  0.84661  0.83945  1.0000
  Ce  Ce141     1.0  0.84615  0.09675  0.83944  1.0000
  Ce  Ce142     1.0  0.84624  0.34664  0.83944  1.0000
  Ce  Ce143     1.0  0.84668  0.59645  0.83945  1.0000
  Ce  Ce144     1.0  0.84627  0.84662  0.83945  1.0000
  Ce  Ce145     1.0  0.18103  0.18176  0.82042  1.0000
  Ce  Ce146     1.0  0.18099  0.43174  0.82042  1.0000
  Ce  Ce147     1.0  0.18131  0.68156  0.82044  1.0000
  Ce  Ce148     1.0  0.18105  0.93173  0.82043  1.0000
  Ce  Ce149     1.0  0.43103  0.18176  0.82042  1.0000
  Ce  Ce150     1.0  0.43099  0.43174  0.82042  1.0000
  Ce  Ce151     1.0  0.43131  0.68156  0.82044  1.0000
  Ce  Ce152     1.0  0.43105  0.93173  0.82043  1.0000
  Ce  Ce153     1.0  0.68103  0.18175  0.82042  1.0000
  Ce  Ce154     1.0  0.68098  0.43173  0.82042  1.0000
  Ce  Ce155     1.0  0.68131  0.68156  0.82044  1.0000
  Ce  Ce156     1.0  0.68104  0.93173  0.82043  1.0000
  Ce  Ce157     1.0  0.93103  0.18175  0.82042  1.0000
  Ce  Ce158     1.0  0.93099  0.43174  0.82042  1.0000
  Ce  Ce159     1.0  0.93130  0.68156  0.82044  1.0000
  Ce  Ce160     1.0  0.93105  0.93173  0.82043  1.0000
  Ce  Ce161     1.0  0.01598  0.01671  0.80142  1.0000
  Ce  Ce162     1.0  0.01590  0.26679  0.80141  1.0000
  Ce  Ce163     1.0  0.01593  0.51676  0.80141  1.0000
  Ce  Ce164     1.0  0.01608  0.76672  0.80143  1.0000
  Ce  Ce165     1.0  0.26598  0.01671  0.80142  1.0000
  Ce  Ce166     1.0  0.26590  0.26679  0.80141  1.0000
  Ce  Ce167     1.0  0.26593  0.51676  0.80141  1.0000
  Ce  Ce168     1.0  0.26608  0.76672  0.80143  1.0000
  Ce  Ce169     1.0  0.51598  0.01671  0.80142  1.0000
  Ce  Ce170     1.0  0.51590  0.26679  0.80141  1.0000
  Ce  Ce171     1.0  0.51592  0.51676  0.80141  1.0000
  Ce  Ce172     1.0  0.51609  0.76672  0.80143  1.0000
  Ce  Ce173     1.0  0.76598  0.01671  0.80142  1.0000
  Ce  Ce174     1.0  0.76590  0.26679  0.80141  1.0000
  Ce  Ce175     1.0  0.76592  0.51676  0.80141  1.0000
  Ce  Ce176     1.0  0.76609  0.76671  0.80143  1.0000
  Ce  Ce177     1.0  0.10084  0.10133  0.78240  1.0000
  Ce  Ce178     1.0  0.10091  0.35125  0.78239  1.0000
  Ce  Ce179     1.0  0.10086  0.60134  0.78239  1.0000
  Ce  Ce180     1.0  0.10110  0.85115  0.78240  1.0000
  Ce  Ce181     1.0  0.35084  0.10133  0.78240  1.0000
  Ce  Ce182     1.0  0.35091  0.35126  0.78239  1.0000
  Ce  Ce183     1.0  0.35086  0.60133  0.78239  1.0000
  Ce  Ce184     1.0  0.35110  0.85115  0.78240  1.0000
  Ce  Ce185     1.0  0.60084  0.10133  0.78240  1.0000
  Ce  Ce186     1.0  0.60091  0.35126  0.78239  1.0000
  Ce  Ce187     1.0  0.60086  0.60133  0.78239  1.0000
  Ce  Ce188     1.0  0.60110  0.85115  0.78240  1.0000
  Ce  Ce189     1.0  0.85084  0.10133  0.78240  1.0000
  Ce  Ce190     1.0  0.85091  0.35125  0.78239  1.0000
  Ce  Ce191     1.0  0.85086  0.60133  0.78239  1.0000
  Ce  Ce192     1.0  0.85110  0.85115  0.78240  1.0000
  Ce  Ce193     1.0  0.18605  0.18629  0.76345  1.0000
  Ce  Ce194     1.0  0.18600  0.43637  0.76344  1.0000
  Ce  Ce195     1.0  0.18609  0.68627  0.76345  1.0000
  Ce  Ce196     1.0  0.18614  0.93630  0.76346  1.0000
  Ce  Ce197     1.0  0.43605  0.18629  0.76345  1.0000
  Ce  Ce198     1.0  0.43600  0.43637  0.76344  1.0000
  Ce  Ce199     1.0  0.43609  0.68627  0.76345  1.0000
  Ce  Ce200     1.0  0.43614  0.93630  0.76346  1.0000
  Ce  Ce201     1.0  0.68605  0.18629  0.76345  1.0000
  Ce  Ce202     1.0  0.68600  0.43637  0.76344  1.0000
  Ce  Ce203     1.0  0.68609  0.68626  0.76345  1.0000
  Ce  Ce204     1.0  0.68614  0.93630  0.76346  1.0000
  Ce  Ce205     1.0  0.93605  0.18629  0.76345  1.0000
  Ce  Ce206     1.0  0.93600  0.43636  0.76344  1.0000
  Ce  Ce207     1.0  0.93609  0.68626  0.76345  1.0000
  Ce  Ce208     1.0  0.93614  0.93630  0.76346  1.0000
  Ce  Ce209     1.0  0.02124  0.02100  0.74445  1.0000
  Ce  Ce210     1.0  0.02096  0.27119  0.74444  1.0000
  Ce  Ce211     1.0  0.02106  0.52113  0.74442  1.0000
  Ce  Ce212     1.0  0.02088  0.77131  0.74446  1.0000
  Ce  Ce213     1.0  0.27123  0.02101  0.74445  1.0000
  Ce  Ce214     1.0  0.27096  0.27120  0.74444  1.0000
  Ce  Ce215     1.0  0.27107  0.52113  0.74442  1.0000
  Ce  Ce216     1.0  0.27088  0.77131  0.74446  1.0000
  Ce  Ce217     1.0  0.52122  0.02102  0.74445  1.0000
  Ce  Ce218     1.0  0.52096  0.27120  0.74444  1.0000
  Ce  Ce219     1.0  0.52107  0.52113  0.74442  1.0000
  Ce  Ce220     1.0  0.52088  0.77132  0.74446  1.0000
  Ce  Ce221     1.0  0.77123  0.02102  0.74445  1.0000
  Ce  Ce222     1.0  0.77097  0.27119  0.74444  1.0000
  Ce  Ce223     1.0  0.77107  0.52113  0.74442  1.0000
  Ce  Ce224     1.0  0.77088  0.77132  0.74446  1.0000
  O   O1        1.0  0.08377  0.08377  0.99609  1.0000
  O   O2        1.0  0.08377  0.33378  0.99609  1.0000
  O   O3        1.0  0.08377  0.58377  0.99609  1.0000
  O   O4        1.0  0.08378  0.83377  0.99609  1.0000
  O   O5        1.0  0.33377  0.08377  0.99609  1.0000
  O   O6        1.0  0.33377  0.33378  0.99609  1.0000
  O   O7        1.0  0.33377  0.58377  0.99609  1.0000
  O   O8        1.0  0.33378  0.83377  0.99609  1.0000
  O   O9        1.0  0.58378  0.08377  0.99609  1.0000
  O   O10       1.0  0.58377  0.33378  0.99609  1.0000
  O   O11       1.0  0.58377  0.58377  0.99609  1.0000
  O   O12       1.0  0.58378  0.83377  0.99609  1.0000
  O   O13       1.0  0.83378  0.08377  0.99609  1.0000
  O   O14       1.0  0.83377  0.33378  0.99609  1.0000
  O   O15       1.0  0.83377  0.58377  0.99609  1.0000
  O   O16       1.0  0.83378  0.83377  0.99609  1.0000
  O   O17       1.0  0.00127  0.00124  0.98668  1.0000
  O   O18       1.0  0.00126  0.25126  0.98668  1.0000
  O   O19       1.0  0.00126  0.50126  0.98668  1.0000
  O   O20       1.0  0.00126  0.75125  0.98668  1.0000
  O   O21       1.0  0.25127  0.00124  0.98668  1.0000
  O   O22       1.0  0.25126  0.25126  0.98668  1.0000
  O   O23       1.0  0.25125  0.50126  0.98668  1.0000
  O   O24       1.0  0.25126  0.75125  0.98668  1.0000
  O   O25       1.0  0.50127  0.00124  0.98668  1.0000
  O   O26       1.0  0.50126  0.25126  0.98668  1.0000
  O   O27       1.0  0.50126  0.50126  0.98668  1.0000
  O   O28       1.0  0.50126  0.75125  0.98668  1.0000
  O   O29       1.0  0.75127  0.00124  0.98668  1.0000
  O   O30       1.0  0.75126  0.25126  0.98668  1.0000
  O   O31       1.0  0.75126  0.50126  0.98668  1.0000
  O   O32       1.0  0.75126  0.75125  0.98668  1.0000
  O   O33       1.0  0.16868  0.16867  0.97727  1.0000
  O   O34       1.0  0.16867  0.41867  0.97727  1.0000
  O   O35       1.0  0.16867  0.66867  0.97727  1.0000
  O   O36       1.0  0.16868  0.91866  0.97727  1.0000
  O   O37       1.0  0.41868  0.16867  0.97727  1.0000
  O   O38       1.0  0.41867  0.41867  0.97727  1.0000
  O   O39       1.0  0.41867  0.66867  0.97727  1.0000
  O   O40       1.0  0.41868  0.91866  0.97727  1.0000
  O   O41       1.0  0.66868  0.16867  0.97727  1.0000
  O   O42       1.0  0.66867  0.41867  0.97727  1.0000
  O   O43       1.0  0.66868  0.66867  0.97727  1.0000
  O   O44       1.0  0.66868  0.91866  0.97727  1.0000
  O   O45       1.0  0.91868  0.16867  0.97727  1.0000
  O   O46       1.0  0.91867  0.41867  0.97727  1.0000
  O   O47       1.0  0.91867  0.66867  0.97727  1.0000
  O   O48       1.0  0.91868  0.91866  0.97727  1.0000
  O   O49       1.0  0.08621  0.08612  0.96774  1.0000
  O   O50       1.0  0.08619  0.33615  0.96774  1.0000
  O   O51       1.0  0.08617  0.58617  0.96774  1.0000
  O   O52       1.0  0.08620  0.83613  0.96774  1.0000
  O   O53       1.0  0.33621  0.08611  0.96774  1.0000
  O   O54       1.0  0.33619  0.33615  0.96774  1.0000
  O   O55       1.0  0.33617  0.58617  0.96774  1.0000
  O   O56       1.0  0.33620  0.83613  0.96774  1.0000
  O   O57       1.0  0.58621  0.08611  0.96774  1.0000
  O   O58       1.0  0.58618  0.33615  0.96774  1.0000
  O   O59       1.0  0.58617  0.58617  0.96774  1.0000
  O   O60       1.0  0.58620  0.83613  0.96774  1.0000
  O   O61       1.0  0.83621  0.08612  0.96774  1.0000
  O   O62       1.0  0.83618  0.33615  0.96774  1.0000
  O   O63       1.0  0.83617  0.58617  0.96774  1.0000
  O   O64       1.0  0.83620  0.83613  0.96774  1.0000
  O   O65       1.0  0.00364  0.00354  0.95817  1.0000
  O   O66       1.0  0.00362  0.25358  0.95817  1.0000
  O   O67       1.0  0.00360  0.50360  0.95817  1.0000
  O   O68       1.0  0.00363  0.75356  0.95817  1.0000
  O   O69       1.0  0.25364  0.00354  0.95817  1.0000
  O   O70       1.0  0.25362  0.25358  0.95817  1.0000
  O   O71       1.0  0.25360  0.50360  0.95817  1.0000
  O   O72       1.0  0.25363  0.75356  0.95817  1.0000
  O   O73       1.0  0.50364  0.00354  0.95817  1.0000
  O   O74       1.0  0.50362  0.25358  0.95817  1.0000
  O   O75       1.0  0.50360  0.50360  0.95817  1.0000
  O   O76       1.0  0.50363  0.75356  0.95817  1.0000
  O   O77       1.0  0.75364  0.00354  0.95817  1.0000
  O   O78       1.0  0.75362  0.25358  0.95817  1.0000
  O   O79       1.0  0.75360  0.50360  0.95817  1.0000
  O   O80       1.0  0.75363  0.75356  0.95817  1.0000
  O   O81       1.0  0.17115  0.17097  0.94866  1.0000
  O   O82       1.0  0.17111  0.42103  0.94867  1.0000
  O   O83       1.0  0.17111  0.67104  0.94867  1.0000
  O   O84       1.0  0.17115  0.92096  0.94867  1.0000
  O   O85       1.0  0.42115  0.17096  0.94866  1.0000
  O   O86       1.0  0.42111  0.42103  0.94867  1.0000
  O   O87       1.0  0.42111  0.67104  0.94867  1.0000
  O   O88       1.0  0.42115  0.92096  0.94867  1.0000
  O   O89       1.0  0.67115  0.17097  0.94866  1.0000
  O   O90       1.0  0.67111  0.42103  0.94867  1.0000
  O   O91       1.0  0.67111  0.67104  0.94867  1.0000
  O   O92       1.0  0.67115  0.92096  0.94867  1.0000
  O   O93       1.0  0.92115  0.17097  0.94866  1.0000
  O   O94       1.0  0.92111  0.42103  0.94867  1.0000
  O   O95       1.0  0.92111  0.67104  0.94867  1.0000
  O   O96       1.0  0.92115  0.92096  0.94867  1.0000
  O   O97       1.0  0.08868  0.08834  0.93919  1.0000
  O   O98       1.0  0.08860  0.33844  0.93918  1.0000
  O   O99       1.0  0.08856  0.58849  0.93918  1.0000
  O   O100      1.0  0.08865  0.83837  0.93919  1.0000
  O   O101      1.0  0.33868  0.08834  0.93919  1.0000
  O   O102      1.0  0.33860  0.33844  0.93918  1.0000
  O   O103      1.0  0.33856  0.58849  0.93918  1.0000
  O   O104      1.0  0.33865  0.83837  0.93919  1.0000
  O   O105      1.0  0.58868  0.08834  0.93919  1.0000
  O   O106      1.0  0.58860  0.33844  0.93918  1.0000
  O   O107      1.0  0.58856  0.58849  0.93918  1.0000
  O   O108      1.0  0.58865  0.83837  0.93919  1.0000
  O   O109      1.0  0.83868  0.08834  0.93919  1.0000
  O   O110      1.0  0.83860  0.33844  0.93918  1.0000
  O   O111      1.0  0.83856  0.58849  0.93918  1.0000
  O   O112      1.0  0.83865  0.83837  0.93919  1.0000
  O   O113      1.0  0.00615  0.00576  0.92969  1.0000
  O   O114      1.0  0.00615  0.25575  0.92969  1.0000
  O   O115      1.0  0.00607  0.50587  0.92968  1.0000
  O   O116      1.0  0.00607  0.75589  0.92968  1.0000
  O   O117      1.0  0.25615  0.00576  0.92969  1.0000
  O   O118      1.0  0.25615  0.25575  0.92969  1.0000
  O   O119      1.0  0.25607  0.50587  0.92968  1.0000
  O   O120      1.0  0.25607  0.75589  0.92968  1.0000
  O   O121      1.0  0.50615  0.00576  0.92969  1.0000
  O   O122      1.0  0.50615  0.25574  0.92969  1.0000
  O   O123      1.0  0.50607  0.50587  0.92968  1.0000
  O   O124      1.0  0.50607  0.75589  0.92968  1.0000
  O   O125      1.0  0.75615  0.00576  0.92969  1.0000
  O   O126      1.0  0.75615  0.25575  0.92969  1.0000
  O   O127      1.0  0.75607  0.50587  0.92968  1.0000
  O   O128      1.0  0.75607  0.75589  0.92968  1.0000
  O   O129      1.0  0.17360  0.17323  0.92019  1.0000
  O   O130      1.0  0.17354  0.42331  0.92019  1.0000
  O   O131      1.0  0.17353  0.67332  0.92019  1.0000
  O   O132      1.0  0.17359  0.92324  0.92019  1.0000
  O   O133      1.0  0.42360  0.17323  0.92019  1.0000
  O   O134      1.0  0.42354  0.42331  0.92019  1.0000
  O   O135      1.0  0.42353  0.67332  0.92019  1.0000
  O   O136      1.0  0.42359  0.92324  0.92019  1.0000
  O   O137      1.0  0.67360  0.17323  0.92019  1.0000
  O   O138      1.0  0.67354  0.42331  0.92019  1.0000
  O   O139      1.0  0.67353  0.67332  0.92019  1.0000
  O   O140      1.0  0.67359  0.92324  0.92019  1.0000
  O   O141      1.0  0.92360  0.17323  0.92019  1.0000
  O   O142      1.0  0.92354  0.42331  0.92019  1.0000
  O   O143      1.0  0.92353  0.67332  0.92019  1.0000
  O   O144      1.0  0.92359  0.92324  0.92019  1.0000
  O   O145      1.0  0.09106  0.09065  0.91069  1.0000
  O   O146      1.0  0.09104  0.34069  0.91069  1.0000
  O   O147      1.0  0.09100  0.59076  0.91069  1.0000
  O   O148      1.0  0.09102  0.84071  0.91069  1.0000
  O   O149      1.0  0.34106  0.09065  0.91069  1.0000
  O   O150      1.0  0.34104  0.34069  0.91069  1.0000
  O   O151      1.0  0.34100  0.59076  0.91069  1.0000
  O   O152      1.0  0.34102  0.84071  0.91069  1.0000
  O   O153      1.0  0.59106  0.09065  0.91069  1.0000
  O   O154      1.0  0.59104  0.34069  0.91069  1.0000
  O   O155      1.0  0.59100  0.59076  0.91069  1.0000
  O   O156      1.0  0.59102  0.84071  0.91069  1.0000
  O   O157      1.0  0.84106  0.09065  0.91069  1.0000
  O   O158      1.0  0.84104  0.34069  0.91069  1.0000
  O   O159      1.0  0.84100  0.59076  0.91069  1.0000
  O   O160      1.0  0.84102  0.84071  0.91069  1.0000
  O   O161      1.0  0.00856  0.00807  0.90119  1.0000
  O   O162      1.0  0.00857  0.25807  0.90119  1.0000
  O   O163      1.0  0.00850  0.50819  0.90119  1.0000
  O   O164      1.0  0.00851  0.75817  0.90119  1.0000
  O   O165      1.0  0.25856  0.00807  0.90119  1.0000
  O   O166      1.0  0.25857  0.25807  0.90119  1.0000
  O   O167      1.0  0.25850  0.50819  0.90119  1.0000
  O   O168      1.0  0.25851  0.75817  0.90119  1.0000
  O   O169      1.0  0.50856  0.00807  0.90119  1.0000
  O   O170      1.0  0.50857  0.25807  0.90119  1.0000
  O   O171      1.0  0.50850  0.50819  0.90119  1.0000
  O   O172      1.0  0.50851  0.75817  0.90119  1.0000
  O   O173      1.0  0.75856  0.00807  0.90119  1.0000
  O   O174      1.0  0.75857  0.25807  0.90119  1.0000
  O   O175      1.0  0.75850  0.50819  0.90119  1.0000
  O   O176      1.0  0.75851  0.75817  0.90119  1.0000
  O   O177      1.0  0.17599  0.17554  0.89169  1.0000
  O   O178      1.0  0.17596  0.42559  0.89169  1.0000
  O   O179      1.0  0.17591  0.67566  0.89169  1.0000
  O   O180      1.0  0.17596  0.92561  0.89169  1.0000
  O   O181      1.0  0.42599  0.17554  0.89169  1.0000
  O   O182      1.0  0.42596  0.42559  0.89169  1.0000
  O   O183      1.0  0.42591  0.67566  0.89169  1.0000
  O   O184      1.0  0.42596  0.92561  0.89169  1.0000
  O   O185      1.0  0.67599  0.17554  0.89169  1.0000
  O   O186      1.0  0.67596  0.42559  0.89169  1.0000
  O   O187      1.0  0.67591  0.67567  0.89169  1.0000
  O   O188      1.0  0.67596  0.92561  0.89169  1.0000
  O   O189      1.0  0.92599  0.17554  0.89169  1.0000
  O   O190      1.0  0.92595  0.42559  0.89169  1.0000
  O   O191      1.0  0.92591  0.67567  0.89169  1.0000
  O   O192      1.0  0.92596  0.92561  0.89169  1.0000
  O   O193      1.0  0.09347  0.09307  0.88220  1.0000
  O   O194      1.0  0.09345  0.34309  0.88221  1.0000
  O   O195      1.0  0.09341  0.59318  0.88221  1.0000
  O   O196      1.0  0.09345  0.84313  0.88221  1.0000
  O   O197      1.0  0.34347  0.09306  0.88220  1.0000
  O   O198      1.0  0.34345  0.34309  0.88221  1.0000
  O   O199      1.0  0.34341  0.59318  0.88221  1.0000
  O   O200      1.0  0.34345  0.84313  0.88221  1.0000
  O   O201      1.0  0.59347  0.09306  0.88220  1.0000
  O   O202      1.0  0.59345  0.34309  0.88221  1.0000
  O   O203      1.0  0.59341  0.59318  0.88221  1.0000
  O   O204      1.0  0.59345  0.84313  0.88221  1.0000
  O   O205      1.0  0.84347  0.09306  0.88220  1.0000
  O   O206      1.0  0.84345  0.34309  0.88221  1.0000
  O   O207      1.0  0.84341  0.59318  0.88221  1.0000
  O   O208      1.0  0.84345  0.84313  0.88221  1.0000
  O   O209      1.0  0.01092  0.01055  0.87270  1.0000
  O   O210      1.0  0.01093  0.26056  0.87269  1.0000
  O   O211      1.0  0.01088  0.51066  0.87270  1.0000
  O   O212      1.0  0.01085  0.76068  0.87271  1.0000
  O   O213      1.0  0.26092  0.01055  0.87270  1.0000
  O   O214      1.0  0.26093  0.26056  0.87269  1.0000
  O   O215      1.0  0.26088  0.51066  0.87270  1.0000
  O   O216      1.0  0.26085  0.76068  0.87271  1.0000
  O   O217      1.0  0.51092  0.01055  0.87270  1.0000
  O   O218      1.0  0.51093  0.26056  0.87269  1.0000
  O   O219      1.0  0.51088  0.51066  0.87270  1.0000
  O   O220      1.0  0.51085  0.76068  0.87271  1.0000
  O   O221      1.0  0.76092  0.01055  0.87270  1.0000
  O   O222      1.0  0.76093  0.26056  0.87269  1.0000
  O   O223      1.0  0.76088  0.51066  0.87270  1.0000
  O   O224      1.0  0.76085  0.76068  0.87271  1.0000
  O   O225      1.0  0.17831  0.17791  0.86315  1.0000
  O   O226      1.0  0.17816  0.42812  0.86314  1.0000
  O   O227      1.0  0.17817  0.67806  0.86315  1.0000
  O   O228      1.0  0.17827  0.92794  0.86315  1.0000
  O   O229      1.0  0.42831  0.17791  0.86315  1.0000
  O   O230      1.0  0.42816  0.42812  0.86314  1.0000
  O   O231      1.0  0.42817  0.67806  0.86315  1.0000
  O   O232      1.0  0.42827  0.92794  0.86315  1.0000
  O   O233      1.0  0.67831  0.17791  0.86315  1.0000
  O   O234      1.0  0.67816  0.42812  0.86314  1.0000
  O   O235      1.0  0.67817  0.67806  0.86315  1.0000
  O   O236      1.0  0.67827  0.92794  0.86315  1.0000
  O   O237      1.0  0.92831  0.17791  0.86315  1.0000
  O   O238      1.0  0.92816  0.42812  0.86314  1.0000
  O   O239      1.0  0.92817  0.67806  0.86315  1.0000
  O   O240      1.0  0.92827  0.92794  0.86315  1.0000
  O   O241      1.0  0.09580  0.09535  0.85363  1.0000
  O   O242      1.0  0.09580  0.34536  0.85363  1.0000
  O   O243      1.0  0.09551  0.59571  0.85363  1.0000
  O   O244      1.0  0.09573  0.84548  0.85363  1.0000
  O   O245      1.0  0.34580  0.09535  0.85363  1.0000
  O   O246      1.0  0.34580  0.34536  0.85363  1.0000
  O   O247      1.0  0.34551  0.59571  0.85363  1.0000
  O   O248      1.0  0.34573  0.84548  0.85363  1.0000
  O   O249      1.0  0.59580  0.09535  0.85363  1.0000
  O   O250      1.0  0.59579  0.34537  0.85363  1.0000
  O   O251      1.0  0.59551  0.59571  0.85363  1.0000
  O   O252      1.0  0.59573  0.84548  0.85363  1.0000
  O   O253      1.0  0.84580  0.09535  0.85363  1.0000
  O   O254      1.0  0.84580  0.34537  0.85363  1.0000
  O   O255      1.0  0.84551  0.59571  0.85363  1.0000
  O   O256      1.0  0.84573  0.84548  0.85363  1.0000
  O   O257      1.0  0.01324  0.01281  0.84412  1.0000
  O   O258      1.0  0.01321  0.26289  0.84412  1.0000
  O   O259      1.0  0.01311  0.51307  0.84413  1.0000
  O   O260      1.0  0.01312  0.76301  0.84412  1.0000
  O   O261      1.0  0.26324  0.01281  0.84412  1.0000
  O   O262      1.0  0.26320  0.26289  0.84412  1.0000
  O   O263      1.0  0.26311  0.51307  0.84413  1.0000
  O   O264      1.0  0.26312  0.76301  0.84412  1.0000
  O   O265      1.0  0.51324  0.01281  0.84412  1.0000
  O   O266      1.0  0.51320  0.26289  0.84412  1.0000
  O   O267      1.0  0.51310  0.51308  0.84413  1.0000
  O   O268      1.0  0.51312  0.76301  0.84412  1.0000
  O   O269      1.0  0.76324  0.01281  0.84412  1.0000
  O   O270      1.0  0.76321  0.26289  0.84412  1.0000
  O   O271      1.0  0.76311  0.51307  0.84413  1.0000
  O   O272      1.0  0.76312  0.76301  0.84412  1.0000
  O   O273      1.0  0.18075  0.18019  0.83461  1.0000
  O   O274      1.0  0.18062  0.43043  0.83461  1.0000
  O   O275      1.0  0.18056  0.68057  0.83462  1.0000
  O   O276      1.0  0.18064  0.93039  0.83461  1.0000
  O   O277      1.0  0.43075  0.18019  0.83461  1.0000
  O   O278      1.0  0.43061  0.43043  0.83461  1.0000
  O   O279      1.0  0.43056  0.68057  0.83462  1.0000
  O   O280      1.0  0.43064  0.93039  0.83461  1.0000
  O   O281      1.0  0.68075  0.18019  0.83461  1.0000
  O   O282      1.0  0.68061  0.43043  0.83460  1.0000
  O   O283      1.0  0.68055  0.68057  0.83462  1.0000
  O   O284      1.0  0.68064  0.93039  0.83461  1.0000
  O   O285      1.0  0.93075  0.18019  0.83461  1.0000
  O   O286      1.0  0.93062  0.43043  0.83460  1.0000
  O   O287      1.0  0.93056  0.68057  0.83462  1.0000
  O   O288      1.0  0.93064  0.93039  0.83461  1.0000
  O   O289      1.0  0.09819  0.09774  0.82510  1.0000
  O   O290      1.0  0.09831  0.34768  0.82511  1.0000
  O   O291      1.0  0.09787  0.59823  0.82511  1.0000
  O   O292      1.0  0.09825  0.84775  0.82512  1.0000
  O   O293      1.0  0.34819  0.09774  0.82510  1.0000
  O   O294      1.0  0.34831  0.34767  0.82511  1.0000
  O   O295      1.0  0.34787  0.59823  0.82511  1.0000
  O   O296      1.0  0.34824  0.84775  0.82512  1.0000
  O   O297      1.0  0.59819  0.09774  0.82510  1.0000
  O   O298      1.0  0.59832  0.34767  0.82511  1.0000
  O   O299      1.0  0.59787  0.59822  0.82511  1.0000
  O   O300      1.0  0.59825  0.84775  0.82512  1.0000
  O   O301      1.0  0.84819  0.09774  0.82510  1.0000
  O   O302      1.0  0.84832  0.34768  0.82511  1.0000
  O   O303      1.0  0.84787  0.59822  0.82511  1.0000
  O   O304      1.0  0.84825  0.84775  0.82512  1.0000
  O   O305      1.0  0.01573  0.01515  0.81561  1.0000
  O   O306      1.0  0.01566  0.26521  0.81560  1.0000
  O   O307      1.0  0.01572  0.51520  0.81561  1.0000
  O   O308      1.0  0.01545  0.76566  0.81561  1.0000
  O   O309      1.0  0.26573  0.01515  0.81561  1.0000
  O   O310      1.0  0.26566  0.26521  0.81560  1.0000
  O   O311      1.0  0.26571  0.51521  0.81561  1.0000
  O   O312      1.0  0.26545  0.76566  0.81561  1.0000
  O   O313      1.0  0.51573  0.01515  0.81561  1.0000
  O   O314      1.0  0.51567  0.26521  0.81560  1.0000
  O   O315      1.0  0.51571  0.51521  0.81561  1.0000
  O   O316      1.0  0.51545  0.76566  0.81561  1.0000
  O   O317      1.0  0.76573  0.01515  0.81561  1.0000
  O   O318      1.0  0.76567  0.26521  0.81560  1.0000
  O   O319      1.0  0.76572  0.51521  0.81561  1.0000
  O   O320      1.0  0.76545  0.76566  0.81561  1.0000
  O   O321      1.0  0.18311  0.18267  0.80610  1.0000
  O   O322      1.0  0.18308  0.43278  0.80610  1.0000
  O   O323      1.0  0.18297  0.68298  0.80611  1.0000
  O   O324      1.0  0.18300  0.93286  0.80610  1.0000
  O   O325      1.0  0.43311  0.18267  0.80610  1.0000
  O   O326      1.0  0.43308  0.43278  0.80610  1.0000
  O   O327      1.0  0.43297  0.68298  0.80611  1.0000
  O   O328      1.0  0.43300  0.93285  0.80610  1.0000
  O   O329      1.0  0.68311  0.18267  0.80610  1.0000
  O   O330      1.0  0.68308  0.43278  0.80610  1.0000
  O   O331      1.0  0.68297  0.68298  0.80611  1.0000
  O   O332      1.0  0.68300  0.93285  0.80610  1.0000
  O   O333      1.0  0.93311  0.18267  0.80610  1.0000
  O   O334      1.0  0.93308  0.43278  0.80610  1.0000
  O   O335      1.0  0.93297  0.68298  0.80611  1.0000
  O   O336      1.0  0.93300  0.93286  0.80610  1.0000
  O   O337      1.0  0.10053  0.10025  0.79660  1.0000
  O   O338      1.0  0.10054  0.35023  0.79660  1.0000
  O   O339      1.0  0.10047  0.60030  0.79660  1.0000
  O   O340      1.0  0.10038  0.85047  0.79661  1.0000
  O   O341      1.0  0.35053  0.10025  0.79660  1.0000
  O   O342      1.0  0.35054  0.35023  0.79660  1.0000
  O   O343      1.0  0.35047  0.60030  0.79660  1.0000
  O   O344      1.0  0.35038  0.85047  0.79661  1.0000
  O   O345      1.0  0.60053  0.10025  0.79660  1.0000
  O   O346      1.0  0.60054  0.35023  0.79660  1.0000
  O   O347      1.0  0.60047  0.60030  0.79660  1.0000
  O   O348      1.0  0.60038  0.85048  0.79661  1.0000
  O   O349      1.0  0.85053  0.10025  0.79660  1.0000
  O   O350      1.0  0.85054  0.35023  0.79660  1.0000
  O   O351      1.0  0.85048  0.60030  0.79660  1.0000
  O   O352      1.0  0.85038  0.85048  0.79661  1.0000
  O   O353      1.0  0.01811  0.01776  0.78715  1.0000
  O   O354      1.0  0.01805  0.26778  0.78716  1.0000
  O   O355      1.0  0.01807  0.51775  0.78715  1.0000
  O   O356      1.0  0.01792  0.76803  0.78717  1.0000
  O   O357      1.0  0.26811  0.01777  0.78716  1.0000
  O   O358      1.0  0.26805  0.26778  0.78716  1.0000
  O   O359      1.0  0.26807  0.51775  0.78715  1.0000
  O   O360      1.0  0.26792  0.76804  0.78717  1.0000
  O   O361      1.0  0.51811  0.01777  0.78715  1.0000
  O   O362      1.0  0.51805  0.26778  0.78716  1.0000
  O   O363      1.0  0.51807  0.51775  0.78715  1.0000
  O   O364      1.0  0.51792  0.76804  0.78717  1.0000
  O   O365      1.0  0.76811  0.01776  0.78715  1.0000
  O   O366      1.0  0.76805  0.26778  0.78716  1.0000
  O   O367      1.0  0.76807  0.51775  0.78715  1.0000
  O   O368      1.0  0.76792  0.76803  0.78717  1.0000
  O   O369      1.0  0.18553  0.18523  0.77765  1.0000
  O   O370      1.0  0.18545  0.43532  0.77766  1.0000
  O   O371      1.0  0.18554  0.68529  0.77766  1.0000
  O   O372      1.0  0.18537  0.93548  0.77767  1.0000
  O   O373      1.0  0.43552  0.18523  0.77765  1.0000
  O   O374      1.0  0.43545  0.43531  0.77766  1.0000
  O   O375      1.0  0.43554  0.68529  0.77766  1.0000
  O   O376      1.0  0.43536  0.93548  0.77767  1.0000
  O   O377      1.0  0.68552  0.18523  0.77765  1.0000
  O   O378      1.0  0.68545  0.43531  0.77766  1.0000
  O   O379      1.0  0.68554  0.68529  0.77766  1.0000
  O   O380      1.0  0.68536  0.93548  0.77767  1.0000
  O   O381      1.0  0.93553  0.18523  0.77765  1.0000
  O   O382      1.0  0.93545  0.43532  0.77766  1.0000
  O   O383      1.0  0.93554  0.68529  0.77766  1.0000
  O   O384      1.0  0.93537  0.93548  0.77767  1.0000
  O   O385      1.0  0.10274  0.10261  0.76811  1.0000
  O   O386      1.0  0.10276  0.35261  0.76811  1.0000
  O   O387      1.0  0.10279  0.60262  0.76811  1.0000
  O   O388      1.0  0.10268  0.85279  0.76812  1.0000
  O   O389      1.0  0.35274  0.10262  0.76811  1.0000
  O   O390      1.0  0.35276  0.35261  0.76811  1.0000
  O   O391      1.0  0.35279  0.60262  0.76811  1.0000
  O   O392      1.0  0.35268  0.85279  0.76812  1.0000
  O   O393      1.0  0.60274  0.10262  0.76811  1.0000
  O   O394      1.0  0.60276  0.35261  0.76811  1.0000
  O   O395      1.0  0.60279  0.60262  0.76811  1.0000
  O   O396      1.0  0.60268  0.85279  0.76812  1.0000
  O   O397      1.0  0.85274  0.10262  0.76811  1.0000
  O   O398      1.0  0.85276  0.35261  0.76811  1.0000
  O   O399      1.0  0.85279  0.60262  0.76811  1.0000
  O   O400      1.0  0.85268  0.85279  0.76812  1.0000
  O   O401      1.0  0.02012  0.02012  0.75859  1.0000
  O   O402      1.0  0.02013  0.27007  0.75858  1.0000
  O   O403      1.0  0.02014  0.52003  0.75858  1.0000
  O   O404      1.0  0.02009  0.77010  0.75859  1.0000
  O   O405      1.0  0.27012  0.02012  0.75859  1.0000
  O   O406      1.0  0.27013  0.27007  0.75858  1.0000
  O   O407      1.0  0.27015  0.52003  0.75858  1.0000
  O   O408      1.0  0.27009  0.77010  0.75859  1.0000
  O   O409      1.0  0.52011  0.02012  0.75859  1.0000
  O   O410      1.0  0.52013  0.27007  0.75858  1.0000
  O   O411      1.0  0.52014  0.52003  0.75858  1.0000
  O   O412      1.0  0.52009  0.77010  0.75859  1.0000
  O   O413      1.0  0.77011  0.02012  0.75859  1.0000
  O   O414      1.0  0.77014  0.27007  0.75858  1.0000
  O   O415      1.0  0.77014  0.52003  0.75858  1.0000
  O   O416      1.0  0.77009  0.77010  0.75859  1.0000
  O   O417      1.0  0.18804  0.18763  0.74914  1.0000
  O   O418      1.0  0.18789  0.43781  0.74913  1.0000
  O   O419      1.0  0.18803  0.68762  0.74914  1.0000
  O   O420      1.0  0.18778  0.93793  0.74915  1.0000
  O   O421      1.0  0.43804  0.18763  0.74914  1.0000
  O   O422      1.0  0.43789  0.43781  0.74913  1.0000
  O   O423      1.0  0.43803  0.68761  0.74914  1.0000
  O   O424      1.0  0.43779  0.93792  0.74915  1.0000
  O   O425      1.0  0.68803  0.18764  0.74914  1.0000
  O   O426      1.0  0.68789  0.43781  0.74913  1.0000
  O   O427      1.0  0.68803  0.68761  0.74914  1.0000
  O   O428      1.0  0.68778  0.93793  0.74915  1.0000
  O   O429      1.0  0.93803  0.18764  0.74914  1.0000
  O   O430      1.0  0.93789  0.43781  0.74913  1.0000
  O   O431      1.0  0.93803  0.68762  0.74914  1.0000
  O   O432      1.0  0.93777  0.93794  0.74915  1.0000
  O   O433      1.0  0.10525  0.10534  0.73974  1.0000
  O   O434      1.0  0.10551  0.35504  0.73973  1.0000
  O   O435      1.0  0.10527  0.60533  0.73973  1.0000
  O   O436      1.0  0.10546  0.85512  0.73973  1.0000
  O   O437      1.0  0.35526  0.10533  0.73974  1.0000
  O   O438      1.0  0.35551  0.35504  0.73973  1.0000
  O   O439      1.0  0.35527  0.60533  0.73973  1.0000
  O   O440      1.0  0.35546  0.85512  0.73973  1.0000
  O   O441      1.0  0.60527  0.10533  0.73974  1.0000
  O   O442      1.0  0.60551  0.35503  0.73973  1.0000
  O   O443      1.0  0.60527  0.60533  0.73973  1.0000
  O   O444      1.0  0.60546  0.85511  0.73973  1.0000
  O   O445      1.0  0.85526  0.10533  0.73974  1.0000
  O   O446      1.0  0.85551  0.35504  0.73973  1.0000
  O   O447      1.0  0.85527  0.60533  0.73973  1.0000
  O   O448      1.0  0.85546  0.85512  0.73973  1.0000
