# generated using pymatgen
data_CeO2
_symmetry_space_group_name_H-M   'P 1'
_cell_length_a   15.46428487
_cell_length_b   15.46428487
_cell_length_c   287.26235969
_cell_angle_alpha   90.38555562
_cell_angle_beta   90.38555562
_cell_angle_gamma   60.00000000
_symmetry_Int_Tables_number   1
_chemical_formula_structural   CeO2
_chemical_formula_sum   'Ce224 O448'
_cell_volume   59491.63809393
_cell_formula_units_Z   224
loop_
 _symmetry_equiv_pos_site_id
 _symmetry_equiv_pos_as_xyz
  1  'x, y, z'
loop_
 _atom_type_symbol
 _atom_type_oxidation_number
  Ce4+  4.0
  O2-  -2.0
loop_
 _atom_site_type_symbol
 _atom_site_label
 _atom_site_symmetry_multiplicity
 _atom_site_fract_x
 _atom_site_fract_y
 _atom_site_fract_z
 _atom_site_occupancy
  Ce4+  Ce0  1  0.16620879  0.16620879  0.99450549  1.0
  Ce4+  Ce1  1  0.16620879  0.41620879  0.99450549  1.0
  Ce4+  Ce2  1  0.16620879  0.66620879  0.99450549  1.0
  Ce4+  Ce3  1  0.16620879  0.91620879  0.99450549  1.0
  Ce4+  Ce4  1  0.41620879  0.16620879  0.99450549  1.0
  Ce4+  Ce5  1  0.41620879  0.41620879  0.99450549  1.0
  Ce4+  Ce6  1  0.41620879  0.66620879  0.99450549  1.0
  Ce4+  Ce7  1  0.41620879  0.91620879  0.99450549  1.0
  Ce4+  Ce8  1  0.66620879  0.16620879  0.99450549  1.0
  Ce4+  Ce9  1  0.66620879  0.41620879  0.99450549  1.0
  Ce4+  Ce10  1  0.66620879  0.66620879  0.99450549  1.0
  Ce4+  Ce11  1  0.66620879  0.91620879  0.99450549  1.0
  Ce4+  Ce12  1  0.91620879  0.16620879  0.99450549  1.0
  Ce4+  Ce13  1  0.91620879  0.41620879  0.99450549  1.0
  Ce4+  Ce14  1  0.91620879  0.66620879  0.99450549  1.0
  Ce4+  Ce15  1  0.91620879  0.91620879  0.99450549  1.0
  Ce4+  Ce16  1  0.24862637  0.24862637  0.98351648  1.0
  Ce4+  Ce17  1  0.24862637  0.49862637  0.98351648  1.0
  Ce4+  Ce18  1  0.24862637  0.74862637  0.98351648  1.0
  Ce4+  Ce19  1  0.24862637  0.99862637  0.98351648  1.0
  Ce4+  Ce20  1  0.49862637  0.24862637  0.98351648  1.0
  Ce4+  Ce21  1  0.49862637  0.49862637  0.98351648  1.0
  Ce4+  Ce22  1  0.49862637  0.74862637  0.98351648  1.0
  Ce4+  Ce23  1  0.49862637  0.99862637  0.98351648  1.0
  Ce4+  Ce24  1  0.74862637  0.24862637  0.98351648  1.0
  Ce4+  Ce25  1  0.74862637  0.49862637  0.98351648  1.0
  Ce4+  Ce26  1  0.74862637  0.74862637  0.98351648  1.0
  Ce4+  Ce27  1  0.74862637  0.99862637  0.98351648  1.0
  Ce4+  Ce28  1  0.99862637  0.24862637  0.98351648  1.0
  Ce4+  Ce29  1  0.99862637  0.49862637  0.98351648  1.0
  Ce4+  Ce30  1  0.99862637  0.74862637  0.98351648  1.0
  Ce4+  Ce31  1  0.99862637  0.99862637  0.98351648  1.0
  Ce4+  Ce32  1  0.08104396  0.08104396  0.97252747  1.0
  Ce4+  Ce33  1  0.08104396  0.33104396  0.97252747  1.0
  Ce4+  Ce34  1  0.08104396  0.58104396  0.97252747  1.0
  Ce4+  Ce35  1  0.08104396  0.83104396  0.97252747  1.0
  Ce4+  Ce36  1  0.33104396  0.08104396  0.97252747  1.0
  Ce4+  Ce37  1  0.33104396  0.33104396  0.97252747  1.0
  Ce4+  Ce38  1  0.33104396  0.58104396  0.97252747  1.0
  Ce4+  Ce39  1  0.33104396  0.83104396  0.97252747  1.0
  Ce4+  Ce40  1  0.58104396  0.08104396  0.97252747  1.0
  Ce4+  Ce41  1  0.58104396  0.33104396  0.97252747  1.0
  Ce4+  Ce42  1  0.58104396  0.58104396  0.97252747  1.0
  Ce4+  Ce43  1  0.58104396  0.83104396  0.97252747  1.0
  Ce4+  Ce44  1  0.83104396  0.08104396  0.97252747  1.0
  Ce4+  Ce45  1  0.83104396  0.33104396  0.97252747  1.0
  Ce4+  Ce46  1  0.83104396  0.58104396  0.97252747  1.0
  Ce4+  Ce47  1  0.83104396  0.83104396  0.97252747  1.0
  Ce4+  Ce48  1  0.16346154  0.16346154  0.96153846  1.0
  Ce4+  Ce49  1  0.16346154  0.41346154  0.96153846  1.0
  Ce4+  Ce50  1  0.16346154  0.66346154  0.96153846  1.0
  Ce4+  Ce51  1  0.16346154  0.91346154  0.96153846  1.0
  Ce4+  Ce52  1  0.41346154  0.16346154  0.96153846  1.0
  Ce4+  Ce53  1  0.41346154  0.41346154  0.96153846  1.0
  Ce4+  Ce54  1  0.41346154  0.66346154  0.96153846  1.0
  Ce4+  Ce55  1  0.41346154  0.91346154  0.96153846  1.0
  Ce4+  Ce56  1  0.66346154  0.16346154  0.96153846  1.0
  Ce4+  Ce57  1  0.66346154  0.41346154  0.96153846  1.0
  Ce4+  Ce58  1  0.66346154  0.66346154  0.96153846  1.0
  Ce4+  Ce59  1  0.66346154  0.91346154  0.96153846  1.0
  Ce4+  Ce60  1  0.91346154  0.16346154  0.96153846  1.0
  Ce4+  Ce61  1  0.91346154  0.41346154  0.96153846  1.0
  Ce4+  Ce62  1  0.91346154  0.66346154  0.96153846  1.0
  Ce4+  Ce63  1  0.91346154  0.91346154  0.96153846  1.0
  Ce4+  Ce64  1  0.24587912  0.24587912  0.95054945  1.0
  Ce4+  Ce65  1  0.24587912  0.49587912  0.95054945  1.0
  Ce4+  Ce66  1  0.24587912  0.74587912  0.95054945  1.0
  Ce4+  Ce67  1  0.24587912  0.99587912  0.95054945  1.0
  Ce4+  Ce68  1  0.49587912  0.24587912  0.95054945  1.0
  Ce4+  Ce69  1  0.49587912  0.49587912  0.95054945  1.0
  Ce4+  Ce70  1  0.49587912  0.74587912  0.95054945  1.0
  Ce4+  Ce71  1  0.49587912  0.99587912  0.95054945  1.0
  Ce4+  Ce72  1  0.74587912  0.24587912  0.95054945  1.0
  Ce4+  Ce73  1  0.74587912  0.49587912  0.95054945  1.0
  Ce4+  Ce74  1  0.74587912  0.74587912  0.95054945  1.0
  Ce4+  Ce75  1  0.74587912  0.99587912  0.95054945  1.0
  Ce4+  Ce76  1  0.99587912  0.24587912  0.95054945  1.0
  Ce4+  Ce77  1  0.99587912  0.49587912  0.95054945  1.0
  Ce4+  Ce78  1  0.99587912  0.74587912  0.95054945  1.0
  Ce4+  Ce79  1  0.99587912  0.99587912  0.95054945  1.0
  Ce4+  Ce80  1  0.07829670  0.07829670  0.93956044  1.0
  Ce4+  Ce81  1  0.07829670  0.32829670  0.93956044  1.0
  Ce4+  Ce82  1  0.07829670  0.57829670  0.93956044  1.0
  Ce4+  Ce83  1  0.07829670  0.82829670  0.93956044  1.0
  Ce4+  Ce84  1  0.32829670  0.07829670  0.93956044  1.0
  Ce4+  Ce85  1  0.32829670  0.32829670  0.93956044  1.0
  Ce4+  Ce86  1  0.32829670  0.57829670  0.93956044  1.0
  Ce4+  Ce87  1  0.32829670  0.82829670  0.93956044  1.0
  Ce4+  Ce88  1  0.57829670  0.07829670  0.93956044  1.0
  Ce4+  Ce89  1  0.57829670  0.32829670  0.93956044  1.0
  Ce4+  Ce90  1  0.57829670  0.57829670  0.93956044  1.0
  Ce4+  Ce91  1  0.57829670  0.82829670  0.93956044  1.0
  Ce4+  Ce92  1  0.82829670  0.07829670  0.93956044  1.0
  Ce4+  Ce93  1  0.82829670  0.32829670  0.93956044  1.0
  Ce4+  Ce94  1  0.82829670  0.57829670  0.93956044  1.0
  Ce4+  Ce95  1  0.82829670  0.82829670  0.93956044  1.0
  Ce4+  Ce96  1  0.16071429  0.16071429  0.92857143  1.0
  Ce4+  Ce97  1  0.16071429  0.41071429  0.92857143  1.0
  Ce4+  Ce98  1  0.16071429  0.66071429  0.92857143  1.0
  Ce4+  Ce99  1  0.16071429  0.91071429  0.92857143  1.0
  Ce4+  Ce100  1  0.41071429  0.16071429  0.92857143  1.0
  Ce4+  Ce101  1  0.41071429  0.41071429  0.92857143  1.0
  Ce4+  Ce102  1  0.41071429  0.66071429  0.92857143  1.0
  Ce4+  Ce103  1  0.41071429  0.91071429  0.92857143  1.0
  Ce4+  Ce104  1  0.66071429  0.16071429  0.92857143  1.0
  Ce4+  Ce105  1  0.66071429  0.41071429  0.92857143  1.0
  Ce4+  Ce106  1  0.66071429  0.66071429  0.92857143  1.0
  Ce4+  Ce107  1  0.66071429  0.91071429  0.92857143  1.0
  Ce4+  Ce108  1  0.91071429  0.16071429  0.92857143  1.0
  Ce4+  Ce109  1  0.91071429  0.41071429  0.92857143  1.0
  Ce4+  Ce110  1  0.91071429  0.66071429  0.92857143  1.0
  Ce4+  Ce111  1  0.91071429  0.91071429  0.92857143  1.0
  Ce4+  Ce112  1  0.24313187  0.24313187  0.91758242  1.0
  Ce4+  Ce113  1  0.24313187  0.49313187  0.91758242  1.0
  Ce4+  Ce114  1  0.24313187  0.74313187  0.91758242  1.0
  Ce4+  Ce115  1  0.24313187  0.99313187  0.91758242  1.0
  Ce4+  Ce116  1  0.49313187  0.24313187  0.91758242  1.0
  Ce4+  Ce117  1  0.49313187  0.49313187  0.91758242  1.0
  Ce4+  Ce118  1  0.49313187  0.74313187  0.91758242  1.0
  Ce4+  Ce119  1  0.49313187  0.99313187  0.91758242  1.0
  Ce4+  Ce120  1  0.74313187  0.24313187  0.91758242  1.0
  Ce4+  Ce121  1  0.74313187  0.49313187  0.91758242  1.0
  Ce4+  Ce122  1  0.74313187  0.74313187  0.91758242  1.0
  Ce4+  Ce123  1  0.74313187  0.99313187  0.91758242  1.0
  Ce4+  Ce124  1  0.99313187  0.24313187  0.91758242  1.0
  Ce4+  Ce125  1  0.99313187  0.49313187  0.91758242  1.0
  Ce4+  Ce126  1  0.99313187  0.74313187  0.91758242  1.0
  Ce4+  Ce127  1  0.99313187  0.99313187  0.91758242  1.0
  Ce4+  Ce128  1  0.07554945  0.07554945  0.90659341  1.0
  Ce4+  Ce129  1  0.07554945  0.32554945  0.90659341  1.0
  Ce4+  Ce130  1  0.07554945  0.57554945  0.90659341  1.0
  Ce4+  Ce131  1  0.07554945  0.82554945  0.90659341  1.0
  Ce4+  Ce132  1  0.32554945  0.07554945  0.90659341  1.0
  Ce4+  Ce133  1  0.32554945  0.32554945  0.90659341  1.0
  Ce4+  Ce134  1  0.32554945  0.57554945  0.90659341  1.0
  Ce4+  Ce135  1  0.32554945  0.82554945  0.90659341  1.0
  Ce4+  Ce136  1  0.57554945  0.07554945  0.90659341  1.0
  Ce4+  Ce137  1  0.57554945  0.32554945  0.90659341  1.0
  Ce4+  Ce138  1  0.57554945  0.57554945  0.90659341  1.0
  Ce4+  Ce139  1  0.57554945  0.82554945  0.90659341  1.0
  Ce4+  Ce140  1  0.82554945  0.07554945  0.90659341  1.0
  Ce4+  Ce141  1  0.82554945  0.32554945  0.90659341  1.0
  Ce4+  Ce142  1  0.82554945  0.57554945  0.90659341  1.0
  Ce4+  Ce143  1  0.82554945  0.82554945  0.90659341  1.0
  Ce4+  Ce144  1  0.15796703  0.15796703  0.89560440  1.0
  Ce4+  Ce145  1  0.15796703  0.40796703  0.89560440  1.0
  Ce4+  Ce146  1  0.15796703  0.65796703  0.89560440  1.0
  Ce4+  Ce147  1  0.15796703  0.90796703  0.89560440  1.0
  Ce4+  Ce148  1  0.40796703  0.15796703  0.89560440  1.0
  Ce4+  Ce149  1  0.40796703  0.40796703  0.89560440  1.0
  Ce4+  Ce150  1  0.40796703  0.65796703  0.89560440  1.0
  Ce4+  Ce151  1  0.40796703  0.90796703  0.89560440  1.0
  Ce4+  Ce152  1  0.65796703  0.15796703  0.89560440  1.0
  Ce4+  Ce153  1  0.65796703  0.40796703  0.89560440  1.0
  Ce4+  Ce154  1  0.65796703  0.65796703  0.89560440  1.0
  Ce4+  Ce155  1  0.65796703  0.90796703  0.89560440  1.0
  Ce4+  Ce156  1  0.90796703  0.15796703  0.89560440  1.0
  Ce4+  Ce157  1  0.90796703  0.40796703  0.89560440  1.0
  Ce4+  Ce158  1  0.90796703  0.65796703  0.89560440  1.0
  Ce4+  Ce159  1  0.90796703  0.90796703  0.89560440  1.0
  Ce4+  Ce160  1  0.24038462  0.24038462  0.88461538  1.0
  Ce4+  Ce161  1  0.24038462  0.49038462  0.88461538  1.0
  Ce4+  Ce162  1  0.24038462  0.74038462  0.88461538  1.0
  Ce4+  Ce163  1  0.24038462  0.99038462  0.88461538  1.0
  Ce4+  Ce164  1  0.49038462  0.24038462  0.88461538  1.0
  Ce4+  Ce165  1  0.49038462  0.49038462  0.88461538  1.0
  Ce4+  Ce166  1  0.49038462  0.74038462  0.88461538  1.0
  Ce4+  Ce167  1  0.49038462  0.99038462  0.88461538  1.0
  Ce4+  Ce168  1  0.74038462  0.24038462  0.88461538  1.0
  Ce4+  Ce169  1  0.74038462  0.49038462  0.88461538  1.0
  Ce4+  Ce170  1  0.74038462  0.74038462  0.88461538  1.0
  Ce4+  Ce171  1  0.74038462  0.99038462  0.88461538  1.0
  Ce4+  Ce172  1  0.99038462  0.24038462  0.88461538  1.0
  Ce4+  Ce173  1  0.99038462  0.49038462  0.88461538  1.0
  Ce4+  Ce174  1  0.99038462  0.74038462  0.88461538  1.0
  Ce4+  Ce175  1  0.99038462  0.99038462  0.88461538  1.0
  Ce4+  Ce176  1  0.07280220  0.07280220  0.87362637  1.0
  Ce4+  Ce177  1  0.07280220  0.32280220  0.87362637  1.0
  Ce4+  Ce178  1  0.07280220  0.57280220  0.87362637  1.0
  Ce4+  Ce179  1  0.07280220  0.82280220  0.87362637  1.0
  Ce4+  Ce180  1  0.32280220  0.07280220  0.87362637  1.0
  Ce4+  Ce181  1  0.32280220  0.32280220  0.87362637  1.0
  Ce4+  Ce182  1  0.32280220  0.57280220  0.87362637  1.0
  Ce4+  Ce183  1  0.32280220  0.82280220  0.87362637  1.0
  Ce4+  Ce184  1  0.57280220  0.07280220  0.87362637  1.0
  Ce4+  Ce185  1  0.57280220  0.32280220  0.87362637  1.0
  Ce4+  Ce186  1  0.57280220  0.57280220  0.87362637  1.0
  Ce4+  Ce187  1  0.57280220  0.82280220  0.87362637  1.0
  Ce4+  Ce188  1  0.82280220  0.07280220  0.87362637  1.0
  Ce4+  Ce189  1  0.82280220  0.32280220  0.87362637  1.0
  Ce4+  Ce190  1  0.82280220  0.57280220  0.87362637  1.0
  Ce4+  Ce191  1  0.82280220  0.82280220  0.87362637  1.0
  Ce4+  Ce192  1  0.15521978  0.15521978  0.86263736  1.0
  Ce4+  Ce193  1  0.15521978  0.40521978  0.86263736  1.0
  Ce4+  Ce194  1  0.15521978  0.65521978  0.86263736  1.0
  Ce4+  Ce195  1  0.15521978  0.90521978  0.86263736  1.0
  Ce4+  Ce196  1  0.40521978  0.15521978  0.86263736  1.0
  Ce4+  Ce197  1  0.40521978  0.40521978  0.86263736  1.0
  Ce4+  Ce198  1  0.40521978  0.65521978  0.86263736  1.0
  Ce4+  Ce199  1  0.40521978  0.90521978  0.86263736  1.0
  Ce4+  Ce200  1  0.65521978  0.15521978  0.86263736  1.0
  Ce4+  Ce201  1  0.65521978  0.40521978  0.86263736  1.0
  Ce4+  Ce202  1  0.65521978  0.65521978  0.86263736  1.0
  Ce4+  Ce203  1  0.65521978  0.90521978  0.86263736  1.0
  Ce4+  Ce204  1  0.90521978  0.15521978  0.86263736  1.0
  Ce4+  Ce205  1  0.90521978  0.40521978  0.86263736  1.0
  Ce4+  Ce206  1  0.90521978  0.65521978  0.86263736  1.0
  Ce4+  Ce207  1  0.90521978  0.90521978  0.86263736  1.0
  Ce4+  Ce208  1  0.23763736  0.23763736  0.85164835  1.0
  Ce4+  Ce209  1  0.23763736  0.48763736  0.85164835  1.0
  Ce4+  Ce210  1  0.23763736  0.73763736  0.85164835  1.0
  Ce4+  Ce211  1  0.23763736  0.98763736  0.85164835  1.0
  Ce4+  Ce212  1  0.48763736  0.23763736  0.85164835  1.0
  Ce4+  Ce213  1  0.48763736  0.48763736  0.85164835  1.0
  Ce4+  Ce214  1  0.48763736  0.73763736  0.85164835  1.0
  Ce4+  Ce215  1  0.48763736  0.98763736  0.85164835  1.0
  Ce4+  Ce216  1  0.73763736  0.23763736  0.85164835  1.0
  Ce4+  Ce217  1  0.73763736  0.48763736  0.85164835  1.0
  Ce4+  Ce218  1  0.73763736  0.73763736  0.85164835  1.0
  Ce4+  Ce219  1  0.73763736  0.98763736  0.85164835  1.0
  Ce4+  Ce220  1  0.98763736  0.23763736  0.85164835  1.0
  Ce4+  Ce221  1  0.98763736  0.48763736  0.85164835  1.0
  Ce4+  Ce222  1  0.98763736  0.73763736  0.85164835  1.0
  Ce4+  Ce223  1  0.98763736  0.98763736  0.85164835  1.0
  O2-  O224  1  0.08310440  0.08310440  0.99725275  1.0
  O2-  O225  1  0.08310440  0.33310440  0.99725275  1.0
  O2-  O226  1  0.08310440  0.58310440  0.99725275  1.0
  O2-  O227  1  0.08310440  0.83310440  0.99725275  1.0
  O2-  O228  1  0.33310440  0.08310440  0.99725275  1.0
  O2-  O229  1  0.33310440  0.33310440  0.99725275  1.0
  O2-  O230  1  0.33310440  0.58310440  0.99725275  1.0
  O2-  O231  1  0.33310440  0.83310440  0.99725275  1.0
  O2-  O232  1  0.58310440  0.08310440  0.99725275  1.0
  O2-  O233  1  0.58310440  0.33310440  0.99725275  1.0
  O2-  O234  1  0.58310440  0.58310440  0.99725275  1.0
  O2-  O235  1  0.58310440  0.83310440  0.99725275  1.0
  O2-  O236  1  0.83310440  0.08310440  0.99725275  1.0
  O2-  O237  1  0.83310440  0.33310440  0.99725275  1.0
  O2-  O238  1  0.83310440  0.58310440  0.99725275  1.0
  O2-  O239  1  0.83310440  0.83310440  0.99725275  1.0
  O2-  O240  1  0.24931319  0.24931319  0.99175824  1.0
  O2-  O241  1  0.24931319  0.49931319  0.99175824  1.0
  O2-  O242  1  0.24931319  0.74931319  0.99175824  1.0
  O2-  O243  1  0.24931319  0.99931319  0.99175824  1.0
  O2-  O244  1  0.49931319  0.24931319  0.99175824  1.0
  O2-  O245  1  0.49931319  0.49931319  0.99175824  1.0
  O2-  O246  1  0.49931319  0.74931319  0.99175824  1.0
  O2-  O247  1  0.49931319  0.99931319  0.99175824  1.0
  O2-  O248  1  0.74931319  0.24931319  0.99175824  1.0
  O2-  O249  1  0.74931319  0.49931319  0.99175824  1.0
  O2-  O250  1  0.74931319  0.74931319  0.99175824  1.0
  O2-  O251  1  0.74931319  0.99931319  0.99175824  1.0
  O2-  O252  1  0.99931319  0.24931319  0.99175824  1.0
  O2-  O253  1  0.99931319  0.49931319  0.99175824  1.0
  O2-  O254  1  0.99931319  0.74931319  0.99175824  1.0
  O2-  O255  1  0.99931319  0.99931319  0.99175824  1.0
  O2-  O256  1  0.16552198  0.16552198  0.98626374  1.0
  O2-  O257  1  0.16552198  0.41552198  0.98626374  1.0
  O2-  O258  1  0.16552198  0.66552198  0.98626374  1.0
  O2-  O259  1  0.16552198  0.91552198  0.98626374  1.0
  O2-  O260  1  0.41552198  0.16552198  0.98626374  1.0
  O2-  O261  1  0.41552198  0.41552198  0.98626374  1.0
  O2-  O262  1  0.41552198  0.66552198  0.98626374  1.0
  O2-  O263  1  0.41552198  0.91552198  0.98626374  1.0
  O2-  O264  1  0.66552198  0.16552198  0.98626374  1.0
  O2-  O265  1  0.66552198  0.41552198  0.98626374  1.0
  O2-  O266  1  0.66552198  0.66552198  0.98626374  1.0
  O2-  O267  1  0.66552198  0.91552198  0.98626374  1.0
  O2-  O268  1  0.91552198  0.16552198  0.98626374  1.0
  O2-  O269  1  0.91552198  0.41552198  0.98626374  1.0
  O2-  O270  1  0.91552198  0.66552198  0.98626374  1.0
  O2-  O271  1  0.91552198  0.91552198  0.98626374  1.0
  O2-  O272  1  0.08173077  0.08173077  0.98076923  1.0
  O2-  O273  1  0.08173077  0.33173077  0.98076923  1.0
  O2-  O274  1  0.08173077  0.58173077  0.98076923  1.0
  O2-  O275  1  0.08173077  0.83173077  0.98076923  1.0
  O2-  O276  1  0.33173077  0.08173077  0.98076923  1.0
  O2-  O277  1  0.33173077  0.33173077  0.98076923  1.0
  O2-  O278  1  0.33173077  0.58173077  0.98076923  1.0
  O2-  O279  1  0.33173077  0.83173077  0.98076923  1.0
  O2-  O280  1  0.58173077  0.08173077  0.98076923  1.0
  O2-  O281  1  0.58173077  0.33173077  0.98076923  1.0
  O2-  O282  1  0.58173077  0.58173077  0.98076923  1.0
  O2-  O283  1  0.58173077  0.83173077  0.98076923  1.0
  O2-  O284  1  0.83173077  0.08173077  0.98076923  1.0
  O2-  O285  1  0.83173077  0.33173077  0.98076923  1.0
  O2-  O286  1  0.83173077  0.58173077  0.98076923  1.0
  O2-  O287  1  0.83173077  0.83173077  0.98076923  1.0
  O2-  O288  1  0.24793956  0.24793956  0.97527473  1.0
  O2-  O289  1  0.24793956  0.49793956  0.97527473  1.0
  O2-  O290  1  0.24793956  0.74793956  0.97527473  1.0
  O2-  O291  1  0.24793956  0.99793956  0.97527473  1.0
  O2-  O292  1  0.49793956  0.24793956  0.97527473  1.0
  O2-  O293  1  0.49793956  0.49793956  0.97527473  1.0
  O2-  O294  1  0.49793956  0.74793956  0.97527473  1.0
  O2-  O295  1  0.49793956  0.99793956  0.97527473  1.0
  O2-  O296  1  0.74793956  0.24793956  0.97527473  1.0
  O2-  O297  1  0.74793956  0.49793956  0.97527473  1.0
  O2-  O298  1  0.74793956  0.74793956  0.97527473  1.0
  O2-  O299  1  0.74793956  0.99793956  0.97527473  1.0
  O2-  O300  1  0.99793956  0.24793956  0.97527473  1.0
  O2-  O301  1  0.99793956  0.49793956  0.97527473  1.0
  O2-  O302  1  0.99793956  0.74793956  0.97527473  1.0
  O2-  O303  1  0.99793956  0.99793956  0.97527473  1.0
  O2-  O304  1  0.16414835  0.16414835  0.96978022  1.0
  O2-  O305  1  0.16414835  0.41414835  0.96978022  1.0
  O2-  O306  1  0.16414835  0.66414835  0.96978022  1.0
  O2-  O307  1  0.16414835  0.91414835  0.96978022  1.0
  O2-  O308  1  0.41414835  0.16414835  0.96978022  1.0
  O2-  O309  1  0.41414835  0.41414835  0.96978022  1.0
  O2-  O310  1  0.41414835  0.66414835  0.96978022  1.0
  O2-  O311  1  0.41414835  0.91414835  0.96978022  1.0
  O2-  O312  1  0.66414835  0.16414835  0.96978022  1.0
  O2-  O313  1  0.66414835  0.41414835  0.96978022  1.0
  O2-  O314  1  0.66414835  0.66414835  0.96978022  1.0
  O2-  O315  1  0.66414835  0.91414835  0.96978022  1.0
  O2-  O316  1  0.91414835  0.16414835  0.96978022  1.0
  O2-  O317  1  0.91414835  0.41414835  0.96978022  1.0
  O2-  O318  1  0.91414835  0.66414835  0.96978022  1.0
  O2-  O319  1  0.91414835  0.91414835  0.96978022  1.0
  O2-  O320  1  0.08035714  0.08035714  0.96428571  1.0
  O2-  O321  1  0.08035714  0.33035714  0.96428571  1.0
  O2-  O322  1  0.08035714  0.58035714  0.96428571  1.0
  O2-  O323  1  0.08035714  0.83035714  0.96428571  1.0
  O2-  O324  1  0.33035714  0.08035714  0.96428571  1.0
  O2-  O325  1  0.33035714  0.33035714  0.96428571  1.0
  O2-  O326  1  0.33035714  0.58035714  0.96428571  1.0
  O2-  O327  1  0.33035714  0.83035714  0.96428571  1.0
  O2-  O328  1  0.58035714  0.08035714  0.96428571  1.0
  O2-  O329  1  0.58035714  0.33035714  0.96428571  1.0
  O2-  O330  1  0.58035714  0.58035714  0.96428571  1.0
  O2-  O331  1  0.58035714  0.83035714  0.96428571  1.0
  O2-  O332  1  0.83035714  0.08035714  0.96428571  1.0
  O2-  O333  1  0.83035714  0.33035714  0.96428571  1.0
  O2-  O334  1  0.83035714  0.58035714  0.96428571  1.0
  O2-  O335  1  0.83035714  0.83035714  0.96428571  1.0
  O2-  O336  1  0.24656593  0.24656593  0.95879121  1.0
  O2-  O337  1  0.24656593  0.49656593  0.95879121  1.0
  O2-  O338  1  0.24656593  0.74656593  0.95879121  1.0
  O2-  O339  1  0.24656593  0.99656593  0.95879121  1.0
  O2-  O340  1  0.49656593  0.24656593  0.95879121  1.0
  O2-  O341  1  0.49656593  0.49656593  0.95879121  1.0
  O2-  O342  1  0.49656593  0.74656593  0.95879121  1.0
  O2-  O343  1  0.49656593  0.99656593  0.95879121  1.0
  O2-  O344  1  0.74656593  0.24656593  0.95879121  1.0
  O2-  O345  1  0.74656593  0.49656593  0.95879121  1.0
  O2-  O346  1  0.74656593  0.74656593  0.95879121  1.0
  O2-  O347  1  0.74656593  0.99656593  0.95879121  1.0
  O2-  O348  1  0.99656593  0.24656593  0.95879121  1.0
  O2-  O349  1  0.99656593  0.49656593  0.95879121  1.0
  O2-  O350  1  0.99656593  0.74656593  0.95879121  1.0
  O2-  O351  1  0.99656593  0.99656593  0.95879121  1.0
  O2-  O352  1  0.16277473  0.16277473  0.95329670  1.0
  O2-  O353  1  0.16277473  0.41277473  0.95329670  1.0
  O2-  O354  1  0.16277473  0.66277473  0.95329670  1.0
  O2-  O355  1  0.16277473  0.91277473  0.95329670  1.0
  O2-  O356  1  0.41277473  0.16277473  0.95329670  1.0
  O2-  O357  1  0.41277473  0.41277473  0.95329670  1.0
  O2-  O358  1  0.41277473  0.66277473  0.95329670  1.0
  O2-  O359  1  0.41277473  0.91277473  0.95329670  1.0
  O2-  O360  1  0.66277473  0.16277473  0.95329670  1.0
  O2-  O361  1  0.66277473  0.41277473  0.95329670  1.0
  O2-  O362  1  0.66277473  0.66277473  0.95329670  1.0
  O2-  O363  1  0.66277473  0.91277473  0.95329670  1.0
  O2-  O364  1  0.91277473  0.16277473  0.95329670  1.0
  O2-  O365  1  0.91277473  0.41277473  0.95329670  1.0
  O2-  O366  1  0.91277473  0.66277473  0.95329670  1.0
  O2-  O367  1  0.91277473  0.91277473  0.95329670  1.0
  O2-  O368  1  0.07898352  0.07898352  0.94780220  1.0
  O2-  O369  1  0.07898352  0.32898352  0.94780220  1.0
  O2-  O370  1  0.07898352  0.57898352  0.94780220  1.0
  O2-  O371  1  0.07898352  0.82898352  0.94780220  1.0
  O2-  O372  1  0.32898352  0.07898352  0.94780220  1.0
  O2-  O373  1  0.32898352  0.32898352  0.94780220  1.0
  O2-  O374  1  0.32898352  0.57898352  0.94780220  1.0
  O2-  O375  1  0.32898352  0.82898352  0.94780220  1.0
  O2-  O376  1  0.57898352  0.07898352  0.94780220  1.0
  O2-  O377  1  0.57898352  0.32898352  0.94780220  1.0
  O2-  O378  1  0.57898352  0.57898352  0.94780220  1.0
  O2-  O379  1  0.57898352  0.82898352  0.94780220  1.0
  O2-  O380  1  0.82898352  0.07898352  0.94780220  1.0
  O2-  O381  1  0.82898352  0.32898352  0.94780220  1.0
  O2-  O382  1  0.82898352  0.57898352  0.94780220  1.0
  O2-  O383  1  0.82898352  0.82898352  0.94780220  1.0
  O2-  O384  1  0.24519231  0.24519231  0.94230769  1.0
  O2-  O385  1  0.24519231  0.49519231  0.94230769  1.0
  O2-  O386  1  0.24519231  0.74519231  0.94230769  1.0
  O2-  O387  1  0.24519231  0.99519231  0.94230769  1.0
  O2-  O388  1  0.49519231  0.24519231  0.94230769  1.0
  O2-  O389  1  0.49519231  0.49519231  0.94230769  1.0
  O2-  O390  1  0.49519231  0.74519231  0.94230769  1.0
  O2-  O391  1  0.49519231  0.99519231  0.94230769  1.0
  O2-  O392  1  0.74519231  0.24519231  0.94230769  1.0
  O2-  O393  1  0.74519231  0.49519231  0.94230769  1.0
  O2-  O394  1  0.74519231  0.74519231  0.94230769  1.0
  O2-  O395  1  0.74519231  0.99519231  0.94230769  1.0
  O2-  O396  1  0.99519231  0.24519231  0.94230769  1.0
  O2-  O397  1  0.99519231  0.49519231  0.94230769  1.0
  O2-  O398  1  0.99519231  0.74519231  0.94230769  1.0
  O2-  O399  1  0.99519231  0.99519231  0.94230769  1.0
  O2-  O400  1  0.16140110  0.16140110  0.93681319  1.0
  O2-  O401  1  0.16140110  0.41140110  0.93681319  1.0
  O2-  O402  1  0.16140110  0.66140110  0.93681319  1.0
  O2-  O403  1  0.16140110  0.91140110  0.93681319  1.0
  O2-  O404  1  0.41140110  0.16140110  0.93681319  1.0
  O2-  O405  1  0.41140110  0.41140110  0.93681319  1.0
  O2-  O406  1  0.41140110  0.66140110  0.93681319  1.0
  O2-  O407  1  0.41140110  0.91140110  0.93681319  1.0
  O2-  O408  1  0.66140110  0.16140110  0.93681319  1.0
  O2-  O409  1  0.66140110  0.41140110  0.93681319  1.0
  O2-  O410  1  0.66140110  0.66140110  0.93681319  1.0
  O2-  O411  1  0.66140110  0.91140110  0.93681319  1.0
  O2-  O412  1  0.91140110  0.16140110  0.93681319  1.0
  O2-  O413  1  0.91140110  0.41140110  0.93681319  1.0
  O2-  O414  1  0.91140110  0.66140110  0.93681319  1.0
  O2-  O415  1  0.91140110  0.91140110  0.93681319  1.0
  O2-  O416  1  0.07760989  0.07760989  0.93131868  1.0
  O2-  O417  1  0.07760989  0.32760989  0.93131868  1.0
  O2-  O418  1  0.07760989  0.57760989  0.93131868  1.0
  O2-  O419  1  0.07760989  0.82760989  0.93131868  1.0
  O2-  O420  1  0.32760989  0.07760989  0.93131868  1.0
  O2-  O421  1  0.32760989  0.32760989  0.93131868  1.0
  O2-  O422  1  0.32760989  0.57760989  0.93131868  1.0
  O2-  O423  1  0.32760989  0.82760989  0.93131868  1.0
  O2-  O424  1  0.57760989  0.07760989  0.93131868  1.0
  O2-  O425  1  0.57760989  0.32760989  0.93131868  1.0
  O2-  O426  1  0.57760989  0.57760989  0.93131868  1.0
  O2-  O427  1  0.57760989  0.82760989  0.93131868  1.0
  O2-  O428  1  0.82760989  0.07760989  0.93131868  1.0
  O2-  O429  1  0.82760989  0.32760989  0.93131868  1.0
  O2-  O430  1  0.82760989  0.57760989  0.93131868  1.0
  O2-  O431  1  0.82760989  0.82760989  0.93131868  1.0
  O2-  O432  1  0.24381868  0.24381868  0.92582418  1.0
  O2-  O433  1  0.24381868  0.49381868  0.92582418  1.0
  O2-  O434  1  0.24381868  0.74381868  0.92582418  1.0
  O2-  O435  1  0.24381868  0.99381868  0.92582418  1.0
  O2-  O436  1  0.49381868  0.24381868  0.92582418  1.0
  O2-  O437  1  0.49381868  0.49381868  0.92582418  1.0
  O2-  O438  1  0.49381868  0.74381868  0.92582418  1.0
  O2-  O439  1  0.49381868  0.99381868  0.92582418  1.0
  O2-  O440  1  0.74381868  0.24381868  0.92582418  1.0
  O2-  O441  1  0.74381868  0.49381868  0.92582418  1.0
  O2-  O442  1  0.74381868  0.74381868  0.92582418  1.0
  O2-  O443  1  0.74381868  0.99381868  0.92582418  1.0
  O2-  O444  1  0.99381868  0.24381868  0.92582418  1.0
  O2-  O445  1  0.99381868  0.49381868  0.92582418  1.0
  O2-  O446  1  0.99381868  0.74381868  0.92582418  1.0
  O2-  O447  1  0.99381868  0.99381868  0.92582418  1.0
  O2-  O448  1  0.16002747  0.16002747  0.92032967  1.0
  O2-  O449  1  0.16002747  0.41002747  0.92032967  1.0
  O2-  O450  1  0.16002747  0.66002747  0.92032967  1.0
  O2-  O451  1  0.16002747  0.91002747  0.92032967  1.0
  O2-  O452  1  0.41002747  0.16002747  0.92032967  1.0
  O2-  O453  1  0.41002747  0.41002747  0.92032967  1.0
  O2-  O454  1  0.41002747  0.66002747  0.92032967  1.0
  O2-  O455  1  0.41002747  0.91002747  0.92032967  1.0
  O2-  O456  1  0.66002747  0.16002747  0.92032967  1.0
  O2-  O457  1  0.66002747  0.41002747  0.92032967  1.0
  O2-  O458  1  0.66002747  0.66002747  0.92032967  1.0
  O2-  O459  1  0.66002747  0.91002747  0.92032967  1.0
  O2-  O460  1  0.91002747  0.16002747  0.92032967  1.0
  O2-  O461  1  0.91002747  0.41002747  0.92032967  1.0
  O2-  O462  1  0.91002747  0.66002747  0.92032967  1.0
  O2-  O463  1  0.91002747  0.91002747  0.92032967  1.0
  O2-  O464  1  0.07623626  0.07623626  0.91483516  1.0
  O2-  O465  1  0.07623626  0.32623626  0.91483516  1.0
  O2-  O466  1  0.07623626  0.57623626  0.91483516  1.0
  O2-  O467  1  0.07623626  0.82623626  0.91483516  1.0
  O2-  O468  1  0.32623626  0.07623626  0.91483516  1.0
  O2-  O469  1  0.32623626  0.32623626  0.91483516  1.0
  O2-  O470  1  0.32623626  0.57623626  0.91483516  1.0
  O2-  O471  1  0.32623626  0.82623626  0.91483516  1.0
  O2-  O472  1  0.57623626  0.07623626  0.91483516  1.0
  O2-  O473  1  0.57623626  0.32623626  0.91483516  1.0
  O2-  O474  1  0.57623626  0.57623626  0.91483516  1.0
  O2-  O475  1  0.57623626  0.82623626  0.91483516  1.0
  O2-  O476  1  0.82623626  0.07623626  0.91483516  1.0
  O2-  O477  1  0.82623626  0.32623626  0.91483516  1.0
  O2-  O478  1  0.82623626  0.57623626  0.91483516  1.0
  O2-  O479  1  0.82623626  0.82623626  0.91483516  1.0
  O2-  O480  1  0.24244505  0.24244505  0.90934066  1.0
  O2-  O481  1  0.24244505  0.49244505  0.90934066  1.0
  O2-  O482  1  0.24244505  0.74244505  0.90934066  1.0
  O2-  O483  1  0.24244505  0.99244505  0.90934066  1.0
  O2-  O484  1  0.49244505  0.24244505  0.90934066  1.0
  O2-  O485  1  0.49244505  0.49244505  0.90934066  1.0
  O2-  O486  1  0.49244505  0.74244505  0.90934066  1.0
  O2-  O487  1  0.49244505  0.99244505  0.90934066  1.0
  O2-  O488  1  0.74244505  0.24244505  0.90934066  1.0
  O2-  O489  1  0.74244505  0.49244505  0.90934066  1.0
  O2-  O490  1  0.74244505  0.74244505  0.90934066  1.0
  O2-  O491  1  0.74244505  0.99244505  0.90934066  1.0
  O2-  O492  1  0.99244505  0.24244505  0.90934066  1.0
  O2-  O493  1  0.99244505  0.49244505  0.90934066  1.0
  O2-  O494  1  0.99244505  0.74244505  0.90934066  1.0
  O2-  O495  1  0.99244505  0.99244505  0.90934066  1.0
  O2-  O496  1  0.15865385  0.15865385  0.90384615  1.0
  O2-  O497  1  0.15865385  0.40865385  0.90384615  1.0
  O2-  O498  1  0.15865385  0.65865385  0.90384615  1.0
  O2-  O499  1  0.15865385  0.90865385  0.90384615  1.0
  O2-  O500  1  0.40865385  0.15865385  0.90384615  1.0
  O2-  O501  1  0.40865385  0.40865385  0.90384615  1.0
  O2-  O502  1  0.40865385  0.65865385  0.90384615  1.0
  O2-  O503  1  0.40865385  0.90865385  0.90384615  1.0
  O2-  O504  1  0.65865385  0.15865385  0.90384615  1.0
  O2-  O505  1  0.65865385  0.40865385  0.90384615  1.0
  O2-  O506  1  0.65865385  0.65865385  0.90384615  1.0
  O2-  O507  1  0.65865385  0.90865385  0.90384615  1.0
  O2-  O508  1  0.90865385  0.15865385  0.90384615  1.0
  O2-  O509  1  0.90865385  0.40865385  0.90384615  1.0
  O2-  O510  1  0.90865385  0.65865385  0.90384615  1.0
  O2-  O511  1  0.90865385  0.90865385  0.90384615  1.0
  O2-  O512  1  0.07486264  0.07486264  0.89835165  1.0
  O2-  O513  1  0.07486264  0.32486264  0.89835165  1.0
  O2-  O514  1  0.07486264  0.57486264  0.89835165  1.0
  O2-  O515  1  0.07486264  0.82486264  0.89835165  1.0
  O2-  O516  1  0.32486264  0.07486264  0.89835165  1.0
  O2-  O517  1  0.32486264  0.32486264  0.89835165  1.0
  O2-  O518  1  0.32486264  0.57486264  0.89835165  1.0
  O2-  O519  1  0.32486264  0.82486264  0.89835165  1.0
  O2-  O520  1  0.57486264  0.07486264  0.89835165  1.0
  O2-  O521  1  0.57486264  0.32486264  0.89835165  1.0
  O2-  O522  1  0.57486264  0.57486264  0.89835165  1.0
  O2-  O523  1  0.57486264  0.82486264  0.89835165  1.0
  O2-  O524  1  0.82486264  0.07486264  0.89835165  1.0
  O2-  O525  1  0.82486264  0.32486264  0.89835165  1.0
  O2-  O526  1  0.82486264  0.57486264  0.89835165  1.0
  O2-  O527  1  0.82486264  0.82486264  0.89835165  1.0
  O2-  O528  1  0.24107143  0.24107143  0.89285714  1.0
  O2-  O529  1  0.24107143  0.49107143  0.89285714  1.0
  O2-  O530  1  0.24107143  0.74107143  0.89285714  1.0
  O2-  O531  1  0.24107143  0.99107143  0.89285714  1.0
  O2-  O532  1  0.49107143  0.24107143  0.89285714  1.0
  O2-  O533  1  0.49107143  0.49107143  0.89285714  1.0
  O2-  O534  1  0.49107143  0.74107143  0.89285714  1.0
  O2-  O535  1  0.49107143  0.99107143  0.89285714  1.0
  O2-  O536  1  0.74107143  0.24107143  0.89285714  1.0
  O2-  O537  1  0.74107143  0.49107143  0.89285714  1.0
  O2-  O538  1  0.74107143  0.74107143  0.89285714  1.0
  O2-  O539  1  0.74107143  0.99107143  0.89285714  1.0
  O2-  O540  1  0.99107143  0.24107143  0.89285714  1.0
  O2-  O541  1  0.99107143  0.49107143  0.89285714  1.0
  O2-  O542  1  0.99107143  0.74107143  0.89285714  1.0
  O2-  O543  1  0.99107143  0.99107143  0.89285714  1.0
  O2-  O544  1  0.15728022  0.15728022  0.88736264  1.0
  O2-  O545  1  0.15728022  0.40728022  0.88736264  1.0
  O2-  O546  1  0.15728022  0.65728022  0.88736264  1.0
  O2-  O547  1  0.15728022  0.90728022  0.88736264  1.0
  O2-  O548  1  0.40728022  0.15728022  0.88736264  1.0
  O2-  O549  1  0.40728022  0.40728022  0.88736264  1.0
  O2-  O550  1  0.40728022  0.65728022  0.88736264  1.0
  O2-  O551  1  0.40728022  0.90728022  0.88736264  1.0
  O2-  O552  1  0.65728022  0.15728022  0.88736264  1.0
  O2-  O553  1  0.65728022  0.40728022  0.88736264  1.0
  O2-  O554  1  0.65728022  0.65728022  0.88736264  1.0
  O2-  O555  1  0.65728022  0.90728022  0.88736264  1.0
  O2-  O556  1  0.90728022  0.15728022  0.88736264  1.0
  O2-  O557  1  0.90728022  0.40728022  0.88736264  1.0
  O2-  O558  1  0.90728022  0.65728022  0.88736264  1.0
  O2-  O559  1  0.90728022  0.90728022  0.88736264  1.0
  O2-  O560  1  0.07348901  0.07348901  0.88186813  1.0
  O2-  O561  1  0.07348901  0.32348901  0.88186813  1.0
  O2-  O562  1  0.07348901  0.57348901  0.88186813  1.0
  O2-  O563  1  0.07348901  0.82348901  0.88186813  1.0
  O2-  O564  1  0.32348901  0.07348901  0.88186813  1.0
  O2-  O565  1  0.32348901  0.32348901  0.88186813  1.0
  O2-  O566  1  0.32348901  0.57348901  0.88186813  1.0
  O2-  O567  1  0.32348901  0.82348901  0.88186813  1.0
  O2-  O568  1  0.57348901  0.07348901  0.88186813  1.0
  O2-  O569  1  0.57348901  0.32348901  0.88186813  1.0
  O2-  O570  1  0.57348901  0.57348901  0.88186813  1.0
  O2-  O571  1  0.57348901  0.82348901  0.88186813  1.0
  O2-  O572  1  0.82348901  0.07348901  0.88186813  1.0
  O2-  O573  1  0.82348901  0.32348901  0.88186813  1.0
  O2-  O574  1  0.82348901  0.57348901  0.88186813  1.0
  O2-  O575  1  0.82348901  0.82348901  0.88186813  1.0
  O2-  O576  1  0.23969780  0.23969780  0.87637363  1.0
  O2-  O577  1  0.23969780  0.48969780  0.87637363  1.0
  O2-  O578  1  0.23969780  0.73969780  0.87637363  1.0
  O2-  O579  1  0.23969780  0.98969780  0.87637363  1.0
  O2-  O580  1  0.48969780  0.23969780  0.87637363  1.0
  O2-  O581  1  0.48969780  0.48969780  0.87637363  1.0
  O2-  O582  1  0.48969780  0.73969780  0.87637363  1.0
  O2-  O583  1  0.48969780  0.98969780  0.87637363  1.0
  O2-  O584  1  0.73969780  0.23969780  0.87637363  1.0
  O2-  O585  1  0.73969780  0.48969780  0.87637363  1.0
  O2-  O586  1  0.73969780  0.73969780  0.87637363  1.0
  O2-  O587  1  0.73969780  0.98969780  0.87637363  1.0
  O2-  O588  1  0.98969780  0.23969780  0.87637363  1.0
  O2-  O589  1  0.98969780  0.48969780  0.87637363  1.0
  O2-  O590  1  0.98969780  0.73969780  0.87637363  1.0
  O2-  O591  1  0.98969780  0.98969780  0.87637363  1.0
  O2-  O592  1  0.15590659  0.15590659  0.87087912  1.0
  O2-  O593  1  0.15590659  0.40590659  0.87087912  1.0
  O2-  O594  1  0.15590659  0.65590659  0.87087912  1.0
  O2-  O595  1  0.15590659  0.90590659  0.87087912  1.0
  O2-  O596  1  0.40590659  0.15590659  0.87087912  1.0
  O2-  O597  1  0.40590659  0.40590659  0.87087912  1.0
  O2-  O598  1  0.40590659  0.65590659  0.87087912  1.0
  O2-  O599  1  0.40590659  0.90590659  0.87087912  1.0
  O2-  O600  1  0.65590659  0.15590659  0.87087912  1.0
  O2-  O601  1  0.65590659  0.40590659  0.87087912  1.0
  O2-  O602  1  0.65590659  0.65590659  0.87087912  1.0
  O2-  O603  1  0.65590659  0.90590659  0.87087912  1.0
  O2-  O604  1  0.90590659  0.15590659  0.87087912  1.0
  O2-  O605  1  0.90590659  0.40590659  0.87087912  1.0
  O2-  O606  1  0.90590659  0.65590659  0.87087912  1.0
  O2-  O607  1  0.90590659  0.90590659  0.87087912  1.0
  O2-  O608  1  0.07211538  0.07211538  0.86538462  1.0
  O2-  O609  1  0.07211538  0.32211538  0.86538462  1.0
  O2-  O610  1  0.07211538  0.57211538  0.86538462  1.0
  O2-  O611  1  0.07211538  0.82211538  0.86538462  1.0
  O2-  O612  1  0.32211538  0.07211538  0.86538462  1.0
  O2-  O613  1  0.32211538  0.32211538  0.86538462  1.0
  O2-  O614  1  0.32211538  0.57211538  0.86538462  1.0
  O2-  O615  1  0.32211538  0.82211538  0.86538462  1.0
  O2-  O616  1  0.57211538  0.07211538  0.86538462  1.0
  O2-  O617  1  0.57211538  0.32211538  0.86538462  1.0
  O2-  O618  1  0.57211538  0.57211538  0.86538462  1.0
  O2-  O619  1  0.57211538  0.82211538  0.86538462  1.0
  O2-  O620  1  0.82211538  0.07211538  0.86538462  1.0
  O2-  O621  1  0.82211538  0.32211538  0.86538462  1.0
  O2-  O622  1  0.82211538  0.57211538  0.86538462  1.0
  O2-  O623  1  0.82211538  0.82211538  0.86538462  1.0
  O2-  O624  1  0.23832418  0.23832418  0.85989011  1.0
  O2-  O625  1  0.23832418  0.48832418  0.85989011  1.0
  O2-  O626  1  0.23832418  0.73832418  0.85989011  1.0
  O2-  O627  1  0.23832418  0.98832418  0.85989011  1.0
  O2-  O628  1  0.48832418  0.23832418  0.85989011  1.0
  O2-  O629  1  0.48832418  0.48832418  0.85989011  1.0
  O2-  O630  1  0.48832418  0.73832418  0.85989011  1.0
  O2-  O631  1  0.48832418  0.98832418  0.85989011  1.0
  O2-  O632  1  0.73832418  0.23832418  0.85989011  1.0
  O2-  O633  1  0.73832418  0.48832418  0.85989011  1.0
  O2-  O634  1  0.73832418  0.73832418  0.85989011  1.0
  O2-  O635  1  0.73832418  0.98832418  0.85989011  1.0
  O2-  O636  1  0.98832418  0.23832418  0.85989011  1.0
  O2-  O637  1  0.98832418  0.48832418  0.85989011  1.0
  O2-  O638  1  0.98832418  0.73832418  0.85989011  1.0
  O2-  O639  1  0.98832418  0.98832418  0.85989011  1.0
  O2-  O640  1  0.15453297  0.15453297  0.85439560  1.0
  O2-  O641  1  0.15453297  0.40453297  0.85439560  1.0
  O2-  O642  1  0.15453297  0.65453297  0.85439560  1.0
  O2-  O643  1  0.15453297  0.90453297  0.85439560  1.0
  O2-  O644  1  0.40453297  0.15453297  0.85439560  1.0
  O2-  O645  1  0.40453297  0.40453297  0.85439560  1.0
  O2-  O646  1  0.40453297  0.65453297  0.85439560  1.0
  O2-  O647  1  0.40453297  0.90453297  0.85439560  1.0
  O2-  O648  1  0.65453297  0.15453297  0.85439560  1.0
  O2-  O649  1  0.65453297  0.40453297  0.85439560  1.0
  O2-  O650  1  0.65453297  0.65453297  0.85439560  1.0
  O2-  O651  1  0.65453297  0.90453297  0.85439560  1.0
  O2-  O652  1  0.90453297  0.15453297  0.85439560  1.0
  O2-  O653  1  0.90453297  0.40453297  0.85439560  1.0
  O2-  O654  1  0.90453297  0.65453297  0.85439560  1.0
  O2-  O655  1  0.90453297  0.90453297  0.85439560  1.0
  O2-  O656  1  0.07074176  0.07074176  0.84890110  1.0
  O2-  O657  1  0.07074176  0.32074176  0.84890110  1.0
  O2-  O658  1  0.07074176  0.57074176  0.84890110  1.0
  O2-  O659  1  0.07074176  0.82074176  0.84890110  1.0
  O2-  O660  1  0.32074176  0.07074176  0.84890110  1.0
  O2-  O661  1  0.32074176  0.32074176  0.84890110  1.0
  O2-  O662  1  0.32074176  0.57074176  0.84890110  1.0
  O2-  O663  1  0.32074176  0.82074176  0.84890110  1.0
  O2-  O664  1  0.57074176  0.07074176  0.84890110  1.0
  O2-  O665  1  0.57074176  0.32074176  0.84890110  1.0
  O2-  O666  1  0.57074176  0.57074176  0.84890110  1.0
  O2-  O667  1  0.57074176  0.82074176  0.84890110  1.0
  O2-  O668  1  0.82074176  0.07074176  0.84890110  1.0
  O2-  O669  1  0.82074176  0.32074176  0.84890110  1.0
  O2-  O670  1  0.82074176  0.57074176  0.84890110  1.0
  O2-  O671  1  0.82074176  0.82074176  0.84890110  1.0
