# generated using pymatgen
data_CeO2
_symmetry_space_group_name_H-M   'P 1'
_cell_length_a   15.46428487
_cell_length_b   15.46428487
_cell_length_c   145.22231545
_cell_angle_alpha   90.00000000
_cell_angle_beta   89.23732071
_cell_angle_gamma   60.00000000
_symmetry_Int_Tables_number   1
_chemical_formula_structural   CeO2
_chemical_formula_sum   'Ce112 O224'
_cell_volume   30072.69617935
_cell_formula_units_Z   112
loop_
 _symmetry_equiv_pos_site_id
 _symmetry_equiv_pos_as_xyz
  1  'x, y, z'
loop_
 _atom_type_symbol
 _atom_type_oxidation_number
  Ce4+  4.0
  O2-  -2.0
loop_
 _atom_site_type_symbol
 _atom_site_label
 _atom_site_symmetry_multiplicity
 _atom_site_fract_x
 _atom_site_fract_y
 _atom_site_fract_z
 _atom_site_occupancy
  Ce4+  Ce0  1  0.16847826  0.16576087  0.98913043  1.0
  Ce4+  Ce1  1  0.16847826  0.41576087  0.98913043  1.0
  Ce4+  Ce2  1  0.16847826  0.66576087  0.98913043  1.0
  Ce4+  Ce3  1  0.16847826  0.91576087  0.98913043  1.0
  Ce4+  Ce4  1  0.41847826  0.16576087  0.98913043  1.0
  Ce4+  Ce5  1  0.41847826  0.41576087  0.98913043  1.0
  Ce4+  Ce6  1  0.41847826  0.66576087  0.98913043  1.0
  Ce4+  Ce7  1  0.41847826  0.91576087  0.98913043  1.0
  Ce4+  Ce8  1  0.66847826  0.16576087  0.98913043  1.0
  Ce4+  Ce9  1  0.66847826  0.41576087  0.98913043  1.0
  Ce4+  Ce10  1  0.66847826  0.66576087  0.98913043  1.0
  Ce4+  Ce11  1  0.66847826  0.91576087  0.98913043  1.0
  Ce4+  Ce12  1  0.91847826  0.16576087  0.98913043  1.0
  Ce4+  Ce13  1  0.91847826  0.41576087  0.98913043  1.0
  Ce4+  Ce14  1  0.91847826  0.66576087  0.98913043  1.0
  Ce4+  Ce15  1  0.91847826  0.91576087  0.98913043  1.0
  Ce4+  Ce16  1  0.00543478  0.24728261  0.96739130  1.0
  Ce4+  Ce17  1  0.00543478  0.49728261  0.96739130  1.0
  Ce4+  Ce18  1  0.00543478  0.74728261  0.96739130  1.0
  Ce4+  Ce19  1  0.00543478  0.99728261  0.96739130  1.0
  Ce4+  Ce20  1  0.25543478  0.24728261  0.96739130  1.0
  Ce4+  Ce21  1  0.25543478  0.49728261  0.96739130  1.0
  Ce4+  Ce22  1  0.25543478  0.74728261  0.96739130  1.0
  Ce4+  Ce23  1  0.25543478  0.99728261  0.96739130  1.0
  Ce4+  Ce24  1  0.50543478  0.24728261  0.96739130  1.0
  Ce4+  Ce25  1  0.50543478  0.49728261  0.96739130  1.0
  Ce4+  Ce26  1  0.50543478  0.74728261  0.96739130  1.0
  Ce4+  Ce27  1  0.50543478  0.99728261  0.96739130  1.0
  Ce4+  Ce28  1  0.75543478  0.24728261  0.96739130  1.0
  Ce4+  Ce29  1  0.75543478  0.49728261  0.96739130  1.0
  Ce4+  Ce30  1  0.75543478  0.74728261  0.96739130  1.0
  Ce4+  Ce31  1  0.75543478  0.99728261  0.96739130  1.0
  Ce4+  Ce32  1  0.09239130  0.07880435  0.94565217  1.0
  Ce4+  Ce33  1  0.09239130  0.32880435  0.94565217  1.0
  Ce4+  Ce34  1  0.09239130  0.57880435  0.94565217  1.0
  Ce4+  Ce35  1  0.09239130  0.82880435  0.94565217  1.0
  Ce4+  Ce36  1  0.34239130  0.07880435  0.94565217  1.0
  Ce4+  Ce37  1  0.34239130  0.32880435  0.94565217  1.0
  Ce4+  Ce38  1  0.34239130  0.57880435  0.94565217  1.0
  Ce4+  Ce39  1  0.34239130  0.82880435  0.94565217  1.0
  Ce4+  Ce40  1  0.59239130  0.07880435  0.94565217  1.0
  Ce4+  Ce41  1  0.59239130  0.32880435  0.94565217  1.0
  Ce4+  Ce42  1  0.59239130  0.57880435  0.94565217  1.0
  Ce4+  Ce43  1  0.59239130  0.82880435  0.94565217  1.0
  Ce4+  Ce44  1  0.84239130  0.07880435  0.94565217  1.0
  Ce4+  Ce45  1  0.84239130  0.32880435  0.94565217  1.0
  Ce4+  Ce46  1  0.84239130  0.57880435  0.94565217  1.0
  Ce4+  Ce47  1  0.84239130  0.82880435  0.94565217  1.0
  Ce4+  Ce48  1  0.17934783  0.16032609  0.92391304  1.0
  Ce4+  Ce49  1  0.17934783  0.41032609  0.92391304  1.0
  Ce4+  Ce50  1  0.17934783  0.66032609  0.92391304  1.0
  Ce4+  Ce51  1  0.17934783  0.91032609  0.92391304  1.0
  Ce4+  Ce52  1  0.42934783  0.16032609  0.92391304  1.0
  Ce4+  Ce53  1  0.42934783  0.41032609  0.92391304  1.0
  Ce4+  Ce54  1  0.42934783  0.66032609  0.92391304  1.0
  Ce4+  Ce55  1  0.42934783  0.91032609  0.92391304  1.0
  Ce4+  Ce56  1  0.67934783  0.16032609  0.92391304  1.0
  Ce4+  Ce57  1  0.67934783  0.41032609  0.92391304  1.0
  Ce4+  Ce58  1  0.67934783  0.66032609  0.92391304  1.0
  Ce4+  Ce59  1  0.67934783  0.91032609  0.92391304  1.0
  Ce4+  Ce60  1  0.92934783  0.16032609  0.92391304  1.0
  Ce4+  Ce61  1  0.92934783  0.41032609  0.92391304  1.0
  Ce4+  Ce62  1  0.92934783  0.66032609  0.92391304  1.0
  Ce4+  Ce63  1  0.92934783  0.91032609  0.92391304  1.0
  Ce4+  Ce64  1  0.01630435  0.24184783  0.90217391  1.0
  Ce4+  Ce65  1  0.01630435  0.49184783  0.90217391  1.0
  Ce4+  Ce66  1  0.01630435  0.74184783  0.90217391  1.0
  Ce4+  Ce67  1  0.01630435  0.99184783  0.90217391  1.0
  Ce4+  Ce68  1  0.26630435  0.24184783  0.90217391  1.0
  Ce4+  Ce69  1  0.26630435  0.49184783  0.90217391  1.0
  Ce4+  Ce70  1  0.26630435  0.74184783  0.90217391  1.0
  Ce4+  Ce71  1  0.26630435  0.99184783  0.90217391  1.0
  Ce4+  Ce72  1  0.51630435  0.24184783  0.90217391  1.0
  Ce4+  Ce73  1  0.51630435  0.49184783  0.90217391  1.0
  Ce4+  Ce74  1  0.51630435  0.74184783  0.90217391  1.0
  Ce4+  Ce75  1  0.51630435  0.99184783  0.90217391  1.0
  Ce4+  Ce76  1  0.76630435  0.24184783  0.90217391  1.0
  Ce4+  Ce77  1  0.76630435  0.49184783  0.90217391  1.0
  Ce4+  Ce78  1  0.76630435  0.74184783  0.90217391  1.0
  Ce4+  Ce79  1  0.76630435  0.99184783  0.90217391  1.0
  Ce4+  Ce80  1  0.10326087  0.07336957  0.88043478  1.0
  Ce4+  Ce81  1  0.10326087  0.32336957  0.88043478  1.0
  Ce4+  Ce82  1  0.10326087  0.57336957  0.88043478  1.0
  Ce4+  Ce83  1  0.10326087  0.82336957  0.88043478  1.0
  Ce4+  Ce84  1  0.35326087  0.07336957  0.88043478  1.0
  Ce4+  Ce85  1  0.35326087  0.32336957  0.88043478  1.0
  Ce4+  Ce86  1  0.35326087  0.57336957  0.88043478  1.0
  Ce4+  Ce87  1  0.35326087  0.82336957  0.88043478  1.0
  Ce4+  Ce88  1  0.60326087  0.07336957  0.88043478  1.0
  Ce4+  Ce89  1  0.60326087  0.32336957  0.88043478  1.0
  Ce4+  Ce90  1  0.60326087  0.57336957  0.88043478  1.0
  Ce4+  Ce91  1  0.60326087  0.82336957  0.88043478  1.0
  Ce4+  Ce92  1  0.85326087  0.07336957  0.88043478  1.0
  Ce4+  Ce93  1  0.85326087  0.32336957  0.88043478  1.0
  Ce4+  Ce94  1  0.85326087  0.57336957  0.88043478  1.0
  Ce4+  Ce95  1  0.85326087  0.82336957  0.88043478  1.0
  Ce4+  Ce96  1  0.19021739  0.15489130  0.85869565  1.0
  Ce4+  Ce97  1  0.19021739  0.40489130  0.85869565  1.0
  Ce4+  Ce98  1  0.19021739  0.65489130  0.85869565  1.0
  Ce4+  Ce99  1  0.19021739  0.90489130  0.85869565  1.0
  Ce4+  Ce100  1  0.44021739  0.15489130  0.85869565  1.0
  Ce4+  Ce101  1  0.44021739  0.40489130  0.85869565  1.0
  Ce4+  Ce102  1  0.44021739  0.65489130  0.85869565  1.0
  Ce4+  Ce103  1  0.44021739  0.90489130  0.85869565  1.0
  Ce4+  Ce104  1  0.69021739  0.15489130  0.85869565  1.0
  Ce4+  Ce105  1  0.69021739  0.40489130  0.85869565  1.0
  Ce4+  Ce106  1  0.69021739  0.65489130  0.85869565  1.0
  Ce4+  Ce107  1  0.69021739  0.90489130  0.85869565  1.0
  Ce4+  Ce108  1  0.94021739  0.15489130  0.85869565  1.0
  Ce4+  Ce109  1  0.94021739  0.40489130  0.85869565  1.0
  Ce4+  Ce110  1  0.94021739  0.65489130  0.85869565  1.0
  Ce4+  Ce111  1  0.94021739  0.90489130  0.85869565  1.0
  O2-  O112  1  0.08423913  0.08288043  0.99456522  1.0
  O2-  O113  1  0.08423913  0.33288043  0.99456522  1.0
  O2-  O114  1  0.08423913  0.58288043  0.99456522  1.0
  O2-  O115  1  0.08423913  0.83288043  0.99456522  1.0
  O2-  O116  1  0.33423913  0.08288043  0.99456522  1.0
  O2-  O117  1  0.33423913  0.33288043  0.99456522  1.0
  O2-  O118  1  0.33423913  0.58288043  0.99456522  1.0
  O2-  O119  1  0.33423913  0.83288043  0.99456522  1.0
  O2-  O120  1  0.58423913  0.08288043  0.99456522  1.0
  O2-  O121  1  0.58423913  0.33288043  0.99456522  1.0
  O2-  O122  1  0.58423913  0.58288043  0.99456522  1.0
  O2-  O123  1  0.58423913  0.83288043  0.99456522  1.0
  O2-  O124  1  0.83423913  0.08288043  0.99456522  1.0
  O2-  O125  1  0.83423913  0.33288043  0.99456522  1.0
  O2-  O126  1  0.83423913  0.58288043  0.99456522  1.0
  O2-  O127  1  0.83423913  0.83288043  0.99456522  1.0
  O2-  O128  1  0.00271739  0.24864130  0.98369565  1.0
  O2-  O129  1  0.00271739  0.49864130  0.98369565  1.0
  O2-  O130  1  0.00271739  0.74864130  0.98369565  1.0
  O2-  O131  1  0.00271739  0.99864130  0.98369565  1.0
  O2-  O132  1  0.25271739  0.24864130  0.98369565  1.0
  O2-  O133  1  0.25271739  0.49864130  0.98369565  1.0
  O2-  O134  1  0.25271739  0.74864130  0.98369565  1.0
  O2-  O135  1  0.25271739  0.99864130  0.98369565  1.0
  O2-  O136  1  0.50271739  0.24864130  0.98369565  1.0
  O2-  O137  1  0.50271739  0.49864130  0.98369565  1.0
  O2-  O138  1  0.50271739  0.74864130  0.98369565  1.0
  O2-  O139  1  0.50271739  0.99864130  0.98369565  1.0
  O2-  O140  1  0.75271739  0.24864130  0.98369565  1.0
  O2-  O141  1  0.75271739  0.49864130  0.98369565  1.0
  O2-  O142  1  0.75271739  0.74864130  0.98369565  1.0
  O2-  O143  1  0.75271739  0.99864130  0.98369565  1.0
  O2-  O144  1  0.17119565  0.16440217  0.97282609  1.0
  O2-  O145  1  0.17119565  0.41440217  0.97282609  1.0
  O2-  O146  1  0.17119565  0.66440217  0.97282609  1.0
  O2-  O147  1  0.17119565  0.91440217  0.97282609  1.0
  O2-  O148  1  0.42119565  0.16440217  0.97282609  1.0
  O2-  O149  1  0.42119565  0.41440217  0.97282609  1.0
  O2-  O150  1  0.42119565  0.66440217  0.97282609  1.0
  O2-  O151  1  0.42119565  0.91440217  0.97282609  1.0
  O2-  O152  1  0.67119565  0.16440217  0.97282609  1.0
  O2-  O153  1  0.67119565  0.41440217  0.97282609  1.0
  O2-  O154  1  0.67119565  0.66440217  0.97282609  1.0
  O2-  O155  1  0.67119565  0.91440217  0.97282609  1.0
  O2-  O156  1  0.92119565  0.16440217  0.97282609  1.0
  O2-  O157  1  0.92119565  0.41440217  0.97282609  1.0
  O2-  O158  1  0.92119565  0.66440217  0.97282609  1.0
  O2-  O159  1  0.92119565  0.91440217  0.97282609  1.0
  O2-  O160  1  0.08967391  0.08016304  0.96195652  1.0
  O2-  O161  1  0.08967391  0.33016304  0.96195652  1.0
  O2-  O162  1  0.08967391  0.58016304  0.96195652  1.0
  O2-  O163  1  0.08967391  0.83016304  0.96195652  1.0
  O2-  O164  1  0.33967391  0.08016304  0.96195652  1.0
  O2-  O165  1  0.33967391  0.33016304  0.96195652  1.0
  O2-  O166  1  0.33967391  0.58016304  0.96195652  1.0
  O2-  O167  1  0.33967391  0.83016304  0.96195652  1.0
  O2-  O168  1  0.58967391  0.08016304  0.96195652  1.0
  O2-  O169  1  0.58967391  0.33016304  0.96195652  1.0
  O2-  O170  1  0.58967391  0.58016304  0.96195652  1.0
  O2-  O171  1  0.58967391  0.83016304  0.96195652  1.0
  O2-  O172  1  0.83967391  0.08016304  0.96195652  1.0
  O2-  O173  1  0.83967391  0.33016304  0.96195652  1.0
  O2-  O174  1  0.83967391  0.58016304  0.96195652  1.0
  O2-  O175  1  0.83967391  0.83016304  0.96195652  1.0
  O2-  O176  1  0.00815217  0.24592391  0.95108696  1.0
  O2-  O177  1  0.00815217  0.49592391  0.95108696  1.0
  O2-  O178  1  0.00815217  0.74592391  0.95108696  1.0
  O2-  O179  1  0.00815217  0.99592391  0.95108696  1.0
  O2-  O180  1  0.25815217  0.24592391  0.95108696  1.0
  O2-  O181  1  0.25815217  0.49592391  0.95108696  1.0
  O2-  O182  1  0.25815217  0.74592391  0.95108696  1.0
  O2-  O183  1  0.25815217  0.99592391  0.95108696  1.0
  O2-  O184  1  0.50815217  0.24592391  0.95108696  1.0
  O2-  O185  1  0.50815217  0.49592391  0.95108696  1.0
  O2-  O186  1  0.50815217  0.74592391  0.95108696  1.0
  O2-  O187  1  0.50815217  0.99592391  0.95108696  1.0
  O2-  O188  1  0.75815217  0.24592391  0.95108696  1.0
  O2-  O189  1  0.75815217  0.49592391  0.95108696  1.0
  O2-  O190  1  0.75815217  0.74592391  0.95108696  1.0
  O2-  O191  1  0.75815217  0.99592391  0.95108696  1.0
  O2-  O192  1  0.17663043  0.16168478  0.94021739  1.0
  O2-  O193  1  0.17663043  0.41168478  0.94021739  1.0
  O2-  O194  1  0.17663043  0.66168478  0.94021739  1.0
  O2-  O195  1  0.17663043  0.91168478  0.94021739  1.0
  O2-  O196  1  0.42663043  0.16168478  0.94021739  1.0
  O2-  O197  1  0.42663043  0.41168478  0.94021739  1.0
  O2-  O198  1  0.42663043  0.66168478  0.94021739  1.0
  O2-  O199  1  0.42663043  0.91168478  0.94021739  1.0
  O2-  O200  1  0.67663043  0.16168478  0.94021739  1.0
  O2-  O201  1  0.67663043  0.41168478  0.94021739  1.0
  O2-  O202  1  0.67663043  0.66168478  0.94021739  1.0
  O2-  O203  1  0.67663043  0.91168478  0.94021739  1.0
  O2-  O204  1  0.92663043  0.16168478  0.94021739  1.0
  O2-  O205  1  0.92663043  0.41168478  0.94021739  1.0
  O2-  O206  1  0.92663043  0.66168478  0.94021739  1.0
  O2-  O207  1  0.92663043  0.91168478  0.94021739  1.0
  O2-  O208  1  0.09510870  0.07744565  0.92934783  1.0
  O2-  O209  1  0.09510870  0.32744565  0.92934783  1.0
  O2-  O210  1  0.09510870  0.57744565  0.92934783  1.0
  O2-  O211  1  0.09510870  0.82744565  0.92934783  1.0
  O2-  O212  1  0.34510870  0.07744565  0.92934783  1.0
  O2-  O213  1  0.34510870  0.32744565  0.92934783  1.0
  O2-  O214  1  0.34510870  0.57744565  0.92934783  1.0
  O2-  O215  1  0.34510870  0.82744565  0.92934783  1.0
  O2-  O216  1  0.59510870  0.07744565  0.92934783  1.0
  O2-  O217  1  0.59510870  0.32744565  0.92934783  1.0
  O2-  O218  1  0.59510870  0.57744565  0.92934783  1.0
  O2-  O219  1  0.59510870  0.82744565  0.92934783  1.0
  O2-  O220  1  0.84510870  0.07744565  0.92934783  1.0
  O2-  O221  1  0.84510870  0.32744565  0.92934783  1.0
  O2-  O222  1  0.84510870  0.57744565  0.92934783  1.0
  O2-  O223  1  0.84510870  0.82744565  0.92934783  1.0
  O2-  O224  1  0.01358696  0.24320652  0.91847826  1.0
  O2-  O225  1  0.01358696  0.49320652  0.91847826  1.0
  O2-  O226  1  0.01358696  0.74320652  0.91847826  1.0
  O2-  O227  1  0.01358696  0.99320652  0.91847826  1.0
  O2-  O228  1  0.26358696  0.24320652  0.91847826  1.0
  O2-  O229  1  0.26358696  0.49320652  0.91847826  1.0
  O2-  O230  1  0.26358696  0.74320652  0.91847826  1.0
  O2-  O231  1  0.26358696  0.99320652  0.91847826  1.0
  O2-  O232  1  0.51358696  0.24320652  0.91847826  1.0
  O2-  O233  1  0.51358696  0.49320652  0.91847826  1.0
  O2-  O234  1  0.51358696  0.74320652  0.91847826  1.0
  O2-  O235  1  0.51358696  0.99320652  0.91847826  1.0
  O2-  O236  1  0.76358696  0.24320652  0.91847826  1.0
  O2-  O237  1  0.76358696  0.49320652  0.91847826  1.0
  O2-  O238  1  0.76358696  0.74320652  0.91847826  1.0
  O2-  O239  1  0.76358696  0.99320652  0.91847826  1.0
  O2-  O240  1  0.18206522  0.15896739  0.90760870  1.0
  O2-  O241  1  0.18206522  0.40896739  0.90760870  1.0
  O2-  O242  1  0.18206522  0.65896739  0.90760870  1.0
  O2-  O243  1  0.18206522  0.90896739  0.90760870  1.0
  O2-  O244  1  0.43206522  0.15896739  0.90760870  1.0
  O2-  O245  1  0.43206522  0.40896739  0.90760870  1.0
  O2-  O246  1  0.43206522  0.65896739  0.90760870  1.0
  O2-  O247  1  0.43206522  0.90896739  0.90760870  1.0
  O2-  O248  1  0.68206522  0.15896739  0.90760870  1.0
  O2-  O249  1  0.68206522  0.40896739  0.90760870  1.0
  O2-  O250  1  0.68206522  0.65896739  0.90760870  1.0
  O2-  O251  1  0.68206522  0.90896739  0.90760870  1.0
  O2-  O252  1  0.93206522  0.15896739  0.90760870  1.0
  O2-  O253  1  0.93206522  0.40896739  0.90760870  1.0
  O2-  O254  1  0.93206522  0.65896739  0.90760870  1.0
  O2-  O255  1  0.93206522  0.90896739  0.90760870  1.0
  O2-  O256  1  0.10054348  0.07472826  0.89673913  1.0
  O2-  O257  1  0.10054348  0.32472826  0.89673913  1.0
  O2-  O258  1  0.10054348  0.57472826  0.89673913  1.0
  O2-  O259  1  0.10054348  0.82472826  0.89673913  1.0
  O2-  O260  1  0.35054348  0.07472826  0.89673913  1.0
  O2-  O261  1  0.35054348  0.32472826  0.89673913  1.0
  O2-  O262  1  0.35054348  0.57472826  0.89673913  1.0
  O2-  O263  1  0.35054348  0.82472826  0.89673913  1.0
  O2-  O264  1  0.60054348  0.07472826  0.89673913  1.0
  O2-  O265  1  0.60054348  0.32472826  0.89673913  1.0
  O2-  O266  1  0.60054348  0.57472826  0.89673913  1.0
  O2-  O267  1  0.60054348  0.82472826  0.89673913  1.0
  O2-  O268  1  0.85054348  0.07472826  0.89673913  1.0
  O2-  O269  1  0.85054348  0.32472826  0.89673913  1.0
  O2-  O270  1  0.85054348  0.57472826  0.89673913  1.0
  O2-  O271  1  0.85054348  0.82472826  0.89673913  1.0
  O2-  O272  1  0.01902174  0.24048913  0.88586957  1.0
  O2-  O273  1  0.01902174  0.49048913  0.88586957  1.0
  O2-  O274  1  0.01902174  0.74048913  0.88586957  1.0
  O2-  O275  1  0.01902174  0.99048913  0.88586957  1.0
  O2-  O276  1  0.26902174  0.24048913  0.88586957  1.0
  O2-  O277  1  0.26902174  0.49048913  0.88586957  1.0
  O2-  O278  1  0.26902174  0.74048913  0.88586957  1.0
  O2-  O279  1  0.26902174  0.99048913  0.88586957  1.0
  O2-  O280  1  0.51902174  0.24048913  0.88586957  1.0
  O2-  O281  1  0.51902174  0.49048913  0.88586957  1.0
  O2-  O282  1  0.51902174  0.74048913  0.88586957  1.0
  O2-  O283  1  0.51902174  0.99048913  0.88586957  1.0
  O2-  O284  1  0.76902174  0.24048913  0.88586957  1.0
  O2-  O285  1  0.76902174  0.49048913  0.88586957  1.0
  O2-  O286  1  0.76902174  0.74048913  0.88586957  1.0
  O2-  O287  1  0.76902174  0.99048913  0.88586957  1.0
  O2-  O288  1  0.18750000  0.15625000  0.87500000  1.0
  O2-  O289  1  0.18750000  0.40625000  0.87500000  1.0
  O2-  O290  1  0.18750000  0.65625000  0.87500000  1.0
  O2-  O291  1  0.18750000  0.90625000  0.87500000  1.0
  O2-  O292  1  0.43750000  0.15625000  0.87500000  1.0
  O2-  O293  1  0.43750000  0.40625000  0.87500000  1.0
  O2-  O294  1  0.43750000  0.65625000  0.87500000  1.0
  O2-  O295  1  0.43750000  0.90625000  0.87500000  1.0
  O2-  O296  1  0.68750000  0.15625000  0.87500000  1.0
  O2-  O297  1  0.68750000  0.40625000  0.87500000  1.0
  O2-  O298  1  0.68750000  0.65625000  0.87500000  1.0
  O2-  O299  1  0.68750000  0.90625000  0.87500000  1.0
  O2-  O300  1  0.93750000  0.15625000  0.87500000  1.0
  O2-  O301  1  0.93750000  0.40625000  0.87500000  1.0
  O2-  O302  1  0.93750000  0.65625000  0.87500000  1.0
  O2-  O303  1  0.93750000  0.90625000  0.87500000  1.0
  O2-  O304  1  0.10597826  0.07201087  0.86413043  1.0
  O2-  O305  1  0.10597826  0.32201087  0.86413043  1.0
  O2-  O306  1  0.10597826  0.57201087  0.86413043  1.0
  O2-  O307  1  0.10597826  0.82201087  0.86413043  1.0
  O2-  O308  1  0.35597826  0.07201087  0.86413043  1.0
  O2-  O309  1  0.35597826  0.32201087  0.86413043  1.0
  O2-  O310  1  0.35597826  0.57201087  0.86413043  1.0
  O2-  O311  1  0.35597826  0.82201087  0.86413043  1.0
  O2-  O312  1  0.60597826  0.07201087  0.86413043  1.0
  O2-  O313  1  0.60597826  0.32201087  0.86413043  1.0
  O2-  O314  1  0.60597826  0.57201087  0.86413043  1.0
  O2-  O315  1  0.60597826  0.82201087  0.86413043  1.0
  O2-  O316  1  0.85597826  0.07201087  0.86413043  1.0
  O2-  O317  1  0.85597826  0.32201087  0.86413043  1.0
  O2-  O318  1  0.85597826  0.57201087  0.86413043  1.0
  O2-  O319  1  0.85597826  0.82201087  0.86413043  1.0
  O2-  O320  1  0.02445652  0.23777174  0.85326087  1.0
  O2-  O321  1  0.02445652  0.48777174  0.85326087  1.0
  O2-  O322  1  0.02445652  0.73777174  0.85326087  1.0
  O2-  O323  1  0.02445652  0.98777174  0.85326087  1.0
  O2-  O324  1  0.27445652  0.23777174  0.85326087  1.0
  O2-  O325  1  0.27445652  0.48777174  0.85326087  1.0
  O2-  O326  1  0.27445652  0.73777174  0.85326087  1.0
  O2-  O327  1  0.27445652  0.98777174  0.85326087  1.0
  O2-  O328  1  0.52445652  0.23777174  0.85326087  1.0
  O2-  O329  1  0.52445652  0.48777174  0.85326087  1.0
  O2-  O330  1  0.52445652  0.73777174  0.85326087  1.0
  O2-  O331  1  0.52445652  0.98777174  0.85326087  1.0
  O2-  O332  1  0.77445652  0.23777174  0.85326087  1.0
  O2-  O333  1  0.77445652  0.48777174  0.85326087  1.0
  O2-  O334  1  0.77445652  0.73777174  0.85326087  1.0
  O2-  O335  1  0.77445652  0.98777174  0.85326087  1.0
