# generated using pymatgen
data_CeO2
_symmetry_space_group_name_H-M   'P 1'
_cell_length_a   15.46428487
_cell_length_b   15.46428487
_cell_length_c   167.31648748
_cell_angle_alpha   89.33803747
_cell_angle_beta   89.33803747
_cell_angle_gamma   60.00000000
_symmetry_Int_Tables_number   1
_chemical_formula_structural   CeO2
_chemical_formula_sum   'Ce224 O448'
_cell_volume   34648.97603273
_cell_formula_units_Z   224
loop_
 _symmetry_equiv_pos_site_id
 _symmetry_equiv_pos_as_xyz
  1  'x, y, z'
loop_
 _atom_type_symbol
 _atom_type_oxidation_number
  Ce4+  4.0
  O2-  -2.0
loop_
 _atom_site_type_symbol
 _atom_site_label
 _atom_site_symmetry_multiplicity
 _atom_site_fract_x
 _atom_site_fract_y
 _atom_site_fract_z
 _atom_site_occupancy
  Ce4+  Ce0  1  0.16745283  0.16745283  0.99056604  1.0
  Ce4+  Ce1  1  0.16745283  0.41745283  0.99056604  1.0
  Ce4+  Ce2  1  0.16745283  0.66745283  0.99056604  1.0
  Ce4+  Ce3  1  0.16745283  0.91745283  0.99056604  1.0
  Ce4+  Ce4  1  0.41745283  0.16745283  0.99056604  1.0
  Ce4+  Ce5  1  0.41745283  0.41745283  0.99056604  1.0
  Ce4+  Ce6  1  0.41745283  0.66745283  0.99056604  1.0
  Ce4+  Ce7  1  0.41745283  0.91745283  0.99056604  1.0
  Ce4+  Ce8  1  0.66745283  0.16745283  0.99056604  1.0
  Ce4+  Ce9  1  0.66745283  0.41745283  0.99056604  1.0
  Ce4+  Ce10  1  0.66745283  0.66745283  0.99056604  1.0
  Ce4+  Ce11  1  0.66745283  0.91745283  0.99056604  1.0
  Ce4+  Ce12  1  0.91745283  0.16745283  0.99056604  1.0
  Ce4+  Ce13  1  0.91745283  0.41745283  0.99056604  1.0
  Ce4+  Ce14  1  0.91745283  0.66745283  0.99056604  1.0
  Ce4+  Ce15  1  0.91745283  0.91745283  0.99056604  1.0
  Ce4+  Ce16  1  0.00235849  0.00235849  0.97169811  1.0
  Ce4+  Ce17  1  0.00235849  0.25235849  0.97169811  1.0
  Ce4+  Ce18  1  0.00235849  0.50235849  0.97169811  1.0
  Ce4+  Ce19  1  0.00235849  0.75235849  0.97169811  1.0
  Ce4+  Ce20  1  0.25235849  0.00235849  0.97169811  1.0
  Ce4+  Ce21  1  0.25235849  0.25235849  0.97169811  1.0
  Ce4+  Ce22  1  0.25235849  0.50235849  0.97169811  1.0
  Ce4+  Ce23  1  0.25235849  0.75235849  0.97169811  1.0
  Ce4+  Ce24  1  0.50235849  0.00235849  0.97169811  1.0
  Ce4+  Ce25  1  0.50235849  0.25235849  0.97169811  1.0
  Ce4+  Ce26  1  0.50235849  0.50235849  0.97169811  1.0
  Ce4+  Ce27  1  0.50235849  0.75235849  0.97169811  1.0
  Ce4+  Ce28  1  0.75235849  0.00235849  0.97169811  1.0
  Ce4+  Ce29  1  0.75235849  0.25235849  0.97169811  1.0
  Ce4+  Ce30  1  0.75235849  0.50235849  0.97169811  1.0
  Ce4+  Ce31  1  0.75235849  0.75235849  0.97169811  1.0
  Ce4+  Ce32  1  0.08726415  0.08726415  0.95283019  1.0
  Ce4+  Ce33  1  0.08726415  0.33726415  0.95283019  1.0
  Ce4+  Ce34  1  0.08726415  0.58726415  0.95283019  1.0
  Ce4+  Ce35  1  0.08726415  0.83726415  0.95283019  1.0
  Ce4+  Ce36  1  0.33726415  0.08726415  0.95283019  1.0
  Ce4+  Ce37  1  0.33726415  0.33726415  0.95283019  1.0
  Ce4+  Ce38  1  0.33726415  0.58726415  0.95283019  1.0
  Ce4+  Ce39  1  0.33726415  0.83726415  0.95283019  1.0
  Ce4+  Ce40  1  0.58726415  0.08726415  0.95283019  1.0
  Ce4+  Ce41  1  0.58726415  0.33726415  0.95283019  1.0
  Ce4+  Ce42  1  0.58726415  0.58726415  0.95283019  1.0
  Ce4+  Ce43  1  0.58726415  0.83726415  0.95283019  1.0
  Ce4+  Ce44  1  0.83726415  0.08726415  0.95283019  1.0
  Ce4+  Ce45  1  0.83726415  0.33726415  0.95283019  1.0
  Ce4+  Ce46  1  0.83726415  0.58726415  0.95283019  1.0
  Ce4+  Ce47  1  0.83726415  0.83726415  0.95283019  1.0
  Ce4+  Ce48  1  0.17216981  0.17216981  0.93396226  1.0
  Ce4+  Ce49  1  0.17216981  0.42216981  0.93396226  1.0
  Ce4+  Ce50  1  0.17216981  0.67216981  0.93396226  1.0
  Ce4+  Ce51  1  0.17216981  0.92216981  0.93396226  1.0
  Ce4+  Ce52  1  0.42216981  0.17216981  0.93396226  1.0
  Ce4+  Ce53  1  0.42216981  0.42216981  0.93396226  1.0
  Ce4+  Ce54  1  0.42216981  0.67216981  0.93396226  1.0
  Ce4+  Ce55  1  0.42216981  0.92216981  0.93396226  1.0
  Ce4+  Ce56  1  0.67216981  0.17216981  0.93396226  1.0
  Ce4+  Ce57  1  0.67216981  0.42216981  0.93396226  1.0
  Ce4+  Ce58  1  0.67216981  0.67216981  0.93396226  1.0
  Ce4+  Ce59  1  0.67216981  0.92216981  0.93396226  1.0
  Ce4+  Ce60  1  0.92216981  0.17216981  0.93396226  1.0
  Ce4+  Ce61  1  0.92216981  0.42216981  0.93396226  1.0
  Ce4+  Ce62  1  0.92216981  0.67216981  0.93396226  1.0
  Ce4+  Ce63  1  0.92216981  0.92216981  0.93396226  1.0
  Ce4+  Ce64  1  0.00707547  0.00707547  0.91509434  1.0
  Ce4+  Ce65  1  0.00707547  0.25707547  0.91509434  1.0
  Ce4+  Ce66  1  0.00707547  0.50707547  0.91509434  1.0
  Ce4+  Ce67  1  0.00707547  0.75707547  0.91509434  1.0
  Ce4+  Ce68  1  0.25707547  0.00707547  0.91509434  1.0
  Ce4+  Ce69  1  0.25707547  0.25707547  0.91509434  1.0
  Ce4+  Ce70  1  0.25707547  0.50707547  0.91509434  1.0
  Ce4+  Ce71  1  0.25707547  0.75707547  0.91509434  1.0
  Ce4+  Ce72  1  0.50707547  0.00707547  0.91509434  1.0
  Ce4+  Ce73  1  0.50707547  0.25707547  0.91509434  1.0
  Ce4+  Ce74  1  0.50707547  0.50707547  0.91509434  1.0
  Ce4+  Ce75  1  0.50707547  0.75707547  0.91509434  1.0
  Ce4+  Ce76  1  0.75707547  0.00707547  0.91509434  1.0
  Ce4+  Ce77  1  0.75707547  0.25707547  0.91509434  1.0
  Ce4+  Ce78  1  0.75707547  0.50707547  0.91509434  1.0
  Ce4+  Ce79  1  0.75707547  0.75707547  0.91509434  1.0
  Ce4+  Ce80  1  0.09198113  0.09198113  0.89622642  1.0
  Ce4+  Ce81  1  0.09198113  0.34198113  0.89622642  1.0
  Ce4+  Ce82  1  0.09198113  0.59198113  0.89622642  1.0
  Ce4+  Ce83  1  0.09198113  0.84198113  0.89622642  1.0
  Ce4+  Ce84  1  0.34198113  0.09198113  0.89622642  1.0
  Ce4+  Ce85  1  0.34198113  0.34198113  0.89622642  1.0
  Ce4+  Ce86  1  0.34198113  0.59198113  0.89622642  1.0
  Ce4+  Ce87  1  0.34198113  0.84198113  0.89622642  1.0
  Ce4+  Ce88  1  0.59198113  0.09198113  0.89622642  1.0
  Ce4+  Ce89  1  0.59198113  0.34198113  0.89622642  1.0
  Ce4+  Ce90  1  0.59198113  0.59198113  0.89622642  1.0
  Ce4+  Ce91  1  0.59198113  0.84198113  0.89622642  1.0
  Ce4+  Ce92  1  0.84198113  0.09198113  0.89622642  1.0
  Ce4+  Ce93  1  0.84198113  0.34198113  0.89622642  1.0
  Ce4+  Ce94  1  0.84198113  0.59198113  0.89622642  1.0
  Ce4+  Ce95  1  0.84198113  0.84198113  0.89622642  1.0
  Ce4+  Ce96  1  0.17688679  0.17688679  0.87735849  1.0
  Ce4+  Ce97  1  0.17688679  0.42688679  0.87735849  1.0
  Ce4+  Ce98  1  0.17688679  0.67688679  0.87735849  1.0
  Ce4+  Ce99  1  0.17688679  0.92688679  0.87735849  1.0
  Ce4+  Ce100  1  0.42688679  0.17688679  0.87735849  1.0
  Ce4+  Ce101  1  0.42688679  0.42688679  0.87735849  1.0
  Ce4+  Ce102  1  0.42688679  0.67688679  0.87735849  1.0
  Ce4+  Ce103  1  0.42688679  0.92688679  0.87735849  1.0
  Ce4+  Ce104  1  0.67688679  0.17688679  0.87735849  1.0
  Ce4+  Ce105  1  0.67688679  0.42688679  0.87735849  1.0
  Ce4+  Ce106  1  0.67688679  0.67688679  0.87735849  1.0
  Ce4+  Ce107  1  0.67688679  0.92688679  0.87735849  1.0
  Ce4+  Ce108  1  0.92688679  0.17688679  0.87735849  1.0
  Ce4+  Ce109  1  0.92688679  0.42688679  0.87735849  1.0
  Ce4+  Ce110  1  0.92688679  0.67688679  0.87735849  1.0
  Ce4+  Ce111  1  0.92688679  0.92688679  0.87735849  1.0
  Ce4+  Ce112  1  0.01179245  0.01179245  0.85849057  1.0
  Ce4+  Ce113  1  0.01179245  0.26179245  0.85849057  1.0
  Ce4+  Ce114  1  0.01179245  0.51179245  0.85849057  1.0
  Ce4+  Ce115  1  0.01179245  0.76179245  0.85849057  1.0
  Ce4+  Ce116  1  0.26179245  0.01179245  0.85849057  1.0
  Ce4+  Ce117  1  0.26179245  0.26179245  0.85849057  1.0
  Ce4+  Ce118  1  0.26179245  0.51179245  0.85849057  1.0
  Ce4+  Ce119  1  0.26179245  0.76179245  0.85849057  1.0
  Ce4+  Ce120  1  0.51179245  0.01179245  0.85849057  1.0
  Ce4+  Ce121  1  0.51179245  0.26179245  0.85849057  1.0
  Ce4+  Ce122  1  0.51179245  0.51179245  0.85849057  1.0
  Ce4+  Ce123  1  0.51179245  0.76179245  0.85849057  1.0
  Ce4+  Ce124  1  0.76179245  0.01179245  0.85849057  1.0
  Ce4+  Ce125  1  0.76179245  0.26179245  0.85849057  1.0
  Ce4+  Ce126  1  0.76179245  0.51179245  0.85849057  1.0
  Ce4+  Ce127  1  0.76179245  0.76179245  0.85849057  1.0
  Ce4+  Ce128  1  0.09669811  0.09669811  0.83962264  1.0
  Ce4+  Ce129  1  0.09669811  0.34669811  0.83962264  1.0
  Ce4+  Ce130  1  0.09669811  0.59669811  0.83962264  1.0
  Ce4+  Ce131  1  0.09669811  0.84669811  0.83962264  1.0
  Ce4+  Ce132  1  0.34669811  0.09669811  0.83962264  1.0
  Ce4+  Ce133  1  0.34669811  0.34669811  0.83962264  1.0
  Ce4+  Ce134  1  0.34669811  0.59669811  0.83962264  1.0
  Ce4+  Ce135  1  0.34669811  0.84669811  0.83962264  1.0
  Ce4+  Ce136  1  0.59669811  0.09669811  0.83962264  1.0
  Ce4+  Ce137  1  0.59669811  0.34669811  0.83962264  1.0
  Ce4+  Ce138  1  0.59669811  0.59669811  0.83962264  1.0
  Ce4+  Ce139  1  0.59669811  0.84669811  0.83962264  1.0
  Ce4+  Ce140  1  0.84669811  0.09669811  0.83962264  1.0
  Ce4+  Ce141  1  0.84669811  0.34669811  0.83962264  1.0
  Ce4+  Ce142  1  0.84669811  0.59669811  0.83962264  1.0
  Ce4+  Ce143  1  0.84669811  0.84669811  0.83962264  1.0
  Ce4+  Ce144  1  0.18160377  0.18160377  0.82075472  1.0
  Ce4+  Ce145  1  0.18160377  0.43160377  0.82075472  1.0
  Ce4+  Ce146  1  0.18160377  0.68160377  0.82075472  1.0
  Ce4+  Ce147  1  0.18160377  0.93160377  0.82075472  1.0
  Ce4+  Ce148  1  0.43160377  0.18160377  0.82075472  1.0
  Ce4+  Ce149  1  0.43160377  0.43160377  0.82075472  1.0
  Ce4+  Ce150  1  0.43160377  0.68160377  0.82075472  1.0
  Ce4+  Ce151  1  0.43160377  0.93160377  0.82075472  1.0
  Ce4+  Ce152  1  0.68160377  0.18160377  0.82075472  1.0
  Ce4+  Ce153  1  0.68160377  0.43160377  0.82075472  1.0
  Ce4+  Ce154  1  0.68160377  0.68160377  0.82075472  1.0
  Ce4+  Ce155  1  0.68160377  0.93160377  0.82075472  1.0
  Ce4+  Ce156  1  0.93160377  0.18160377  0.82075472  1.0
  Ce4+  Ce157  1  0.93160377  0.43160377  0.82075472  1.0
  Ce4+  Ce158  1  0.93160377  0.68160377  0.82075472  1.0
  Ce4+  Ce159  1  0.93160377  0.93160377  0.82075472  1.0
  Ce4+  Ce160  1  0.01650943  0.01650943  0.80188679  1.0
  Ce4+  Ce161  1  0.01650943  0.26650943  0.80188679  1.0
  Ce4+  Ce162  1  0.01650943  0.51650943  0.80188679  1.0
  Ce4+  Ce163  1  0.01650943  0.76650943  0.80188679  1.0
  Ce4+  Ce164  1  0.26650943  0.01650943  0.80188679  1.0
  Ce4+  Ce165  1  0.26650943  0.26650943  0.80188679  1.0
  Ce4+  Ce166  1  0.26650943  0.51650943  0.80188679  1.0
  Ce4+  Ce167  1  0.26650943  0.76650943  0.80188679  1.0
  Ce4+  Ce168  1  0.51650943  0.01650943  0.80188679  1.0
  Ce4+  Ce169  1  0.51650943  0.26650943  0.80188679  1.0
  Ce4+  Ce170  1  0.51650943  0.51650943  0.80188679  1.0
  Ce4+  Ce171  1  0.51650943  0.76650943  0.80188679  1.0
  Ce4+  Ce172  1  0.76650943  0.01650943  0.80188679  1.0
  Ce4+  Ce173  1  0.76650943  0.26650943  0.80188679  1.0
  Ce4+  Ce174  1  0.76650943  0.51650943  0.80188679  1.0
  Ce4+  Ce175  1  0.76650943  0.76650943  0.80188679  1.0
  Ce4+  Ce176  1  0.10141509  0.10141509  0.78301887  1.0
  Ce4+  Ce177  1  0.10141509  0.35141509  0.78301887  1.0
  Ce4+  Ce178  1  0.10141509  0.60141509  0.78301887  1.0
  Ce4+  Ce179  1  0.10141509  0.85141509  0.78301887  1.0
  Ce4+  Ce180  1  0.35141509  0.10141509  0.78301887  1.0
  Ce4+  Ce181  1  0.35141509  0.35141509  0.78301887  1.0
  Ce4+  Ce182  1  0.35141509  0.60141509  0.78301887  1.0
  Ce4+  Ce183  1  0.35141509  0.85141509  0.78301887  1.0
  Ce4+  Ce184  1  0.60141509  0.10141509  0.78301887  1.0
  Ce4+  Ce185  1  0.60141509  0.35141509  0.78301887  1.0
  Ce4+  Ce186  1  0.60141509  0.60141509  0.78301887  1.0
  Ce4+  Ce187  1  0.60141509  0.85141509  0.78301887  1.0
  Ce4+  Ce188  1  0.85141509  0.10141509  0.78301887  1.0
  Ce4+  Ce189  1  0.85141509  0.35141509  0.78301887  1.0
  Ce4+  Ce190  1  0.85141509  0.60141509  0.78301887  1.0
  Ce4+  Ce191  1  0.85141509  0.85141509  0.78301887  1.0
  Ce4+  Ce192  1  0.18632075  0.18632075  0.76415094  1.0
  Ce4+  Ce193  1  0.18632075  0.43632075  0.76415094  1.0
  Ce4+  Ce194  1  0.18632075  0.68632075  0.76415094  1.0
  Ce4+  Ce195  1  0.18632075  0.93632075  0.76415094  1.0
  Ce4+  Ce196  1  0.43632075  0.18632075  0.76415094  1.0
  Ce4+  Ce197  1  0.43632075  0.43632075  0.76415094  1.0
  Ce4+  Ce198  1  0.43632075  0.68632075  0.76415094  1.0
  Ce4+  Ce199  1  0.43632075  0.93632075  0.76415094  1.0
  Ce4+  Ce200  1  0.68632075  0.18632075  0.76415094  1.0
  Ce4+  Ce201  1  0.68632075  0.43632075  0.76415094  1.0
  Ce4+  Ce202  1  0.68632075  0.68632075  0.76415094  1.0
  Ce4+  Ce203  1  0.68632075  0.93632075  0.76415094  1.0
  Ce4+  Ce204  1  0.93632075  0.18632075  0.76415094  1.0
  Ce4+  Ce205  1  0.93632075  0.43632075  0.76415094  1.0
  Ce4+  Ce206  1  0.93632075  0.68632075  0.76415094  1.0
  Ce4+  Ce207  1  0.93632075  0.93632075  0.76415094  1.0
  Ce4+  Ce208  1  0.02122642  0.02122642  0.74528302  1.0
  Ce4+  Ce209  1  0.02122642  0.27122642  0.74528302  1.0
  Ce4+  Ce210  1  0.02122642  0.52122642  0.74528302  1.0
  Ce4+  Ce211  1  0.02122642  0.77122642  0.74528302  1.0
  Ce4+  Ce212  1  0.27122642  0.02122642  0.74528302  1.0
  Ce4+  Ce213  1  0.27122642  0.27122642  0.74528302  1.0
  Ce4+  Ce214  1  0.27122642  0.52122642  0.74528302  1.0
  Ce4+  Ce215  1  0.27122642  0.77122642  0.74528302  1.0
  Ce4+  Ce216  1  0.52122642  0.02122642  0.74528302  1.0
  Ce4+  Ce217  1  0.52122642  0.27122642  0.74528302  1.0
  Ce4+  Ce218  1  0.52122642  0.52122642  0.74528302  1.0
  Ce4+  Ce219  1  0.52122642  0.77122642  0.74528302  1.0
  Ce4+  Ce220  1  0.77122642  0.02122642  0.74528302  1.0
  Ce4+  Ce221  1  0.77122642  0.27122642  0.74528302  1.0
  Ce4+  Ce222  1  0.77122642  0.52122642  0.74528302  1.0
  Ce4+  Ce223  1  0.77122642  0.77122642  0.74528302  1.0
  O2-  O224  1  0.08372642  0.08372642  0.99528302  1.0
  O2-  O225  1  0.08372642  0.33372642  0.99528302  1.0
  O2-  O226  1  0.08372642  0.58372642  0.99528302  1.0
  O2-  O227  1  0.08372642  0.83372642  0.99528302  1.0
  O2-  O228  1  0.33372642  0.08372642  0.99528302  1.0
  O2-  O229  1  0.33372642  0.33372642  0.99528302  1.0
  O2-  O230  1  0.33372642  0.58372642  0.99528302  1.0
  O2-  O231  1  0.33372642  0.83372642  0.99528302  1.0
  O2-  O232  1  0.58372642  0.08372642  0.99528302  1.0
  O2-  O233  1  0.58372642  0.33372642  0.99528302  1.0
  O2-  O234  1  0.58372642  0.58372642  0.99528302  1.0
  O2-  O235  1  0.58372642  0.83372642  0.99528302  1.0
  O2-  O236  1  0.83372642  0.08372642  0.99528302  1.0
  O2-  O237  1  0.83372642  0.33372642  0.99528302  1.0
  O2-  O238  1  0.83372642  0.58372642  0.99528302  1.0
  O2-  O239  1  0.83372642  0.83372642  0.99528302  1.0
  O2-  O240  1  0.00117925  0.00117925  0.98584906  1.0
  O2-  O241  1  0.00117925  0.25117925  0.98584906  1.0
  O2-  O242  1  0.00117925  0.50117925  0.98584906  1.0
  O2-  O243  1  0.00117925  0.75117925  0.98584906  1.0
  O2-  O244  1  0.25117925  0.00117925  0.98584906  1.0
  O2-  O245  1  0.25117925  0.25117925  0.98584906  1.0
  O2-  O246  1  0.25117925  0.50117925  0.98584906  1.0
  O2-  O247  1  0.25117925  0.75117925  0.98584906  1.0
  O2-  O248  1  0.50117925  0.00117925  0.98584906  1.0
  O2-  O249  1  0.50117925  0.25117925  0.98584906  1.0
  O2-  O250  1  0.50117925  0.50117925  0.98584906  1.0
  O2-  O251  1  0.50117925  0.75117925  0.98584906  1.0
  O2-  O252  1  0.75117925  0.00117925  0.98584906  1.0
  O2-  O253  1  0.75117925  0.25117925  0.98584906  1.0
  O2-  O254  1  0.75117925  0.50117925  0.98584906  1.0
  O2-  O255  1  0.75117925  0.75117925  0.98584906  1.0
  O2-  O256  1  0.16863208  0.16863208  0.97641509  1.0
  O2-  O257  1  0.16863208  0.41863208  0.97641509  1.0
  O2-  O258  1  0.16863208  0.66863208  0.97641509  1.0
  O2-  O259  1  0.16863208  0.91863208  0.97641509  1.0
  O2-  O260  1  0.41863208  0.16863208  0.97641509  1.0
  O2-  O261  1  0.41863208  0.41863208  0.97641509  1.0
  O2-  O262  1  0.41863208  0.66863208  0.97641509  1.0
  O2-  O263  1  0.41863208  0.91863208  0.97641509  1.0
  O2-  O264  1  0.66863208  0.16863208  0.97641509  1.0
  O2-  O265  1  0.66863208  0.41863208  0.97641509  1.0
  O2-  O266  1  0.66863208  0.66863208  0.97641509  1.0
  O2-  O267  1  0.66863208  0.91863208  0.97641509  1.0
  O2-  O268  1  0.91863208  0.16863208  0.97641509  1.0
  O2-  O269  1  0.91863208  0.41863208  0.97641509  1.0
  O2-  O270  1  0.91863208  0.66863208  0.97641509  1.0
  O2-  O271  1  0.91863208  0.91863208  0.97641509  1.0
  O2-  O272  1  0.08608491  0.08608491  0.96698113  1.0
  O2-  O273  1  0.08608491  0.33608491  0.96698113  1.0
  O2-  O274  1  0.08608491  0.58608491  0.96698113  1.0
  O2-  O275  1  0.08608491  0.83608491  0.96698113  1.0
  O2-  O276  1  0.33608491  0.08608491  0.96698113  1.0
  O2-  O277  1  0.33608491  0.33608491  0.96698113  1.0
  O2-  O278  1  0.33608491  0.58608491  0.96698113  1.0
  O2-  O279  1  0.33608491  0.83608491  0.96698113  1.0
  O2-  O280  1  0.58608491  0.08608491  0.96698113  1.0
  O2-  O281  1  0.58608491  0.33608491  0.96698113  1.0
  O2-  O282  1  0.58608491  0.58608491  0.96698113  1.0
  O2-  O283  1  0.58608491  0.83608491  0.96698113  1.0
  O2-  O284  1  0.83608491  0.08608491  0.96698113  1.0
  O2-  O285  1  0.83608491  0.33608491  0.96698113  1.0
  O2-  O286  1  0.83608491  0.58608491  0.96698113  1.0
  O2-  O287  1  0.83608491  0.83608491  0.96698113  1.0
  O2-  O288  1  0.00353774  0.00353774  0.95754717  1.0
  O2-  O289  1  0.00353774  0.25353774  0.95754717  1.0
  O2-  O290  1  0.00353774  0.50353774  0.95754717  1.0
  O2-  O291  1  0.00353774  0.75353774  0.95754717  1.0
  O2-  O292  1  0.25353774  0.00353774  0.95754717  1.0
  O2-  O293  1  0.25353774  0.25353774  0.95754717  1.0
  O2-  O294  1  0.25353774  0.50353774  0.95754717  1.0
  O2-  O295  1  0.25353774  0.75353774  0.95754717  1.0
  O2-  O296  1  0.50353774  0.00353774  0.95754717  1.0
  O2-  O297  1  0.50353774  0.25353774  0.95754717  1.0
  O2-  O298  1  0.50353774  0.50353774  0.95754717  1.0
  O2-  O299  1  0.50353774  0.75353774  0.95754717  1.0
  O2-  O300  1  0.75353774  0.00353774  0.95754717  1.0
  O2-  O301  1  0.75353774  0.25353774  0.95754717  1.0
  O2-  O302  1  0.75353774  0.50353774  0.95754717  1.0
  O2-  O303  1  0.75353774  0.75353774  0.95754717  1.0
  O2-  O304  1  0.17099057  0.17099057  0.94811321  1.0
  O2-  O305  1  0.17099057  0.42099057  0.94811321  1.0
  O2-  O306  1  0.17099057  0.67099057  0.94811321  1.0
  O2-  O307  1  0.17099057  0.92099057  0.94811321  1.0
  O2-  O308  1  0.42099057  0.17099057  0.94811321  1.0
  O2-  O309  1  0.42099057  0.42099057  0.94811321  1.0
  O2-  O310  1  0.42099057  0.67099057  0.94811321  1.0
  O2-  O311  1  0.42099057  0.92099057  0.94811321  1.0
  O2-  O312  1  0.67099057  0.17099057  0.94811321  1.0
  O2-  O313  1  0.67099057  0.42099057  0.94811321  1.0
  O2-  O314  1  0.67099057  0.67099057  0.94811321  1.0
  O2-  O315  1  0.67099057  0.92099057  0.94811321  1.0
  O2-  O316  1  0.92099057  0.17099057  0.94811321  1.0
  O2-  O317  1  0.92099057  0.42099057  0.94811321  1.0
  O2-  O318  1  0.92099057  0.67099057  0.94811321  1.0
  O2-  O319  1  0.92099057  0.92099057  0.94811321  1.0
  O2-  O320  1  0.08844340  0.08844340  0.93867925  1.0
  O2-  O321  1  0.08844340  0.33844340  0.93867925  1.0
  O2-  O322  1  0.08844340  0.58844340  0.93867925  1.0
  O2-  O323  1  0.08844340  0.83844340  0.93867925  1.0
  O2-  O324  1  0.33844340  0.08844340  0.93867925  1.0
  O2-  O325  1  0.33844340  0.33844340  0.93867925  1.0
  O2-  O326  1  0.33844340  0.58844340  0.93867925  1.0
  O2-  O327  1  0.33844340  0.83844340  0.93867925  1.0
  O2-  O328  1  0.58844340  0.08844340  0.93867925  1.0
  O2-  O329  1  0.58844340  0.33844340  0.93867925  1.0
  O2-  O330  1  0.58844340  0.58844340  0.93867925  1.0
  O2-  O331  1  0.58844340  0.83844340  0.93867925  1.0
  O2-  O332  1  0.83844340  0.08844340  0.93867925  1.0
  O2-  O333  1  0.83844340  0.33844340  0.93867925  1.0
  O2-  O334  1  0.83844340  0.58844340  0.93867925  1.0
  O2-  O335  1  0.83844340  0.83844340  0.93867925  1.0
  O2-  O336  1  0.00589623  0.00589623  0.92924528  1.0
  O2-  O337  1  0.00589623  0.25589623  0.92924528  1.0
  O2-  O338  1  0.00589623  0.50589623  0.92924528  1.0
  O2-  O339  1  0.00589623  0.75589623  0.92924528  1.0
  O2-  O340  1  0.25589623  0.00589623  0.92924528  1.0
  O2-  O341  1  0.25589623  0.25589623  0.92924528  1.0
  O2-  O342  1  0.25589623  0.50589623  0.92924528  1.0
  O2-  O343  1  0.25589623  0.75589623  0.92924528  1.0
  O2-  O344  1  0.50589623  0.00589623  0.92924528  1.0
  O2-  O345  1  0.50589623  0.25589623  0.92924528  1.0
  O2-  O346  1  0.50589623  0.50589623  0.92924528  1.0
  O2-  O347  1  0.50589623  0.75589623  0.92924528  1.0
  O2-  O348  1  0.75589623  0.00589623  0.92924528  1.0
  O2-  O349  1  0.75589623  0.25589623  0.92924528  1.0
  O2-  O350  1  0.75589623  0.50589623  0.92924528  1.0
  O2-  O351  1  0.75589623  0.75589623  0.92924528  1.0
  O2-  O352  1  0.17334906  0.17334906  0.91981132  1.0
  O2-  O353  1  0.17334906  0.42334906  0.91981132  1.0
  O2-  O354  1  0.17334906  0.67334906  0.91981132  1.0
  O2-  O355  1  0.17334906  0.92334906  0.91981132  1.0
  O2-  O356  1  0.42334906  0.17334906  0.91981132  1.0
  O2-  O357  1  0.42334906  0.42334906  0.91981132  1.0
  O2-  O358  1  0.42334906  0.67334906  0.91981132  1.0
  O2-  O359  1  0.42334906  0.92334906  0.91981132  1.0
  O2-  O360  1  0.67334906  0.17334906  0.91981132  1.0
  O2-  O361  1  0.5  0.5  0.35860184  1.0 
  O2-  O362  1  0.67334906  0.67334906  0.91981132  1.0
  O2-  O363  1  0.67334906  0.92334906  0.91981132  1.0
  O2-  O364  1  0.92334906  0.17334906  0.91981132  1.0
  O2-  O365  1  0.92334906  0.42334906  0.91981132  1.0
  O2-  O366  1  0.92334906  0.67334906  0.91981132  1.0
  O2-  O367  1  0.92334906  0.92334906  0.91981132  1.0
  O2-  O368  1  0.09080189  0.09080189  0.91037736  1.0
  O2-  O369  1  0.09080189  0.34080189  0.91037736  1.0
  O2-  O370  1  0.09080189  0.59080189  0.91037736  1.0
  O2-  O371  1  0.09080189  0.84080189  0.91037736  1.0
  O2-  O372  1  0.34080189  0.09080189  0.91037736  1.0
  O2-  O373  1  0.34080189  0.34080189  0.91037736  1.0
  O2-  O374  1  0.34080189  0.59080189  0.91037736  1.0
  O2-  O375  1  0.34080189  0.84080189  0.91037736  1.0
  O2-  O376  1  0.59080189  0.09080189  0.91037736  1.0
  O2-  O377  1  0.59080189  0.34080189  0.91037736  1.0
  O2-  O378  1  0.59080189  0.59080189  0.91037736  1.0
  O2-  O379  1  0.59080189  0.84080189  0.91037736  1.0
  O2-  O380  1  0.84080189  0.09080189  0.91037736  1.0
  O2-  O381  1  0.84080189  0.34080189  0.91037736  1.0
  O2-  O382  1  0.84080189  0.59080189  0.91037736  1.0
  O2-  O383  1  0.84080189  0.84080189  0.91037736  1.0
  O2-  O384  1  0.00825472  0.00825472  0.90094340  1.0
  O2-  O385  1  0.00825472  0.25825472  0.90094340  1.0
  O2-  O386  1  0.00825472  0.50825472  0.90094340  1.0
  O2-  O387  1  0.00825472  0.75825472  0.90094340  1.0
  O2-  O388  1  0.25825472  0.00825472  0.90094340  1.0
  O2-  O389  1  0.25825472  0.25825472  0.90094340  1.0
  O2-  O390  1  0.25825472  0.50825472  0.90094340  1.0
  O2-  O391  1  0.25825472  0.75825472  0.90094340  1.0
  O2-  O392  1  0.50825472  0.00825472  0.90094340  1.0
  O2-  O393  1  0.50825472  0.25825472  0.90094340  1.0
  O2-  O394  1  0.50825472  0.50825472  0.90094340  1.0
  O2-  O395  1  0.50825472  0.75825472  0.90094340  1.0
  O2-  O396  1  0.75825472  0.00825472  0.90094340  1.0
  O2-  O397  1  0.75825472  0.25825472  0.90094340  1.0
  O2-  O398  1  0.75825472  0.50825472  0.90094340  1.0
  O2-  O399  1  0.75825472  0.75825472  0.90094340  1.0
  O2-  O400  1  0.17570755  0.17570755  0.89150943  1.0
  O2-  O401  1  0.17570755  0.42570755  0.89150943  1.0
  O2-  O402  1  0.17570755  0.67570755  0.89150943  1.0
  O2-  O403  1  0.17570755  0.92570755  0.89150943  1.0
  O2-  O404  1  0.42570755  0.17570755  0.89150943  1.0
  O2-  O405  1  0.42570755  0.42570755  0.89150943  1.0
  O2-  O406  1  0.42570755  0.67570755  0.89150943  1.0
  O2-  O407  1  0.42570755  0.92570755  0.89150943  1.0
  O2-  O408  1  0.67570755  0.17570755  0.89150943  1.0
  O2-  O409  1  0.67570755  0.42570755  0.89150943  1.0
  O2-  O410  1  0.67570755  0.67570755  0.89150943  1.0
  O2-  O411  1  0.67570755  0.92570755  0.89150943  1.0
  O2-  O412  1  0.92570755  0.17570755  0.89150943  1.0
  O2-  O413  1  0.92570755  0.42570755  0.89150943  1.0
  O2-  O414  1  0.92570755  0.67570755  0.89150943  1.0
  O2-  O415  1  0.92570755  0.92570755  0.89150943  1.0
  O2-  O416  1  0.09316038  0.09316038  0.88207547  1.0
  O2-  O417  1  0.09316038  0.34316038  0.88207547  1.0
  O2-  O418  1  0.09316038  0.59316038  0.88207547  1.0
  O2-  O419  1  0.09316038  0.84316038  0.88207547  1.0
  O2-  O420  1  0.34316038  0.09316038  0.88207547  1.0
  O2-  O421  1  0.34316038  0.34316038  0.88207547  1.0
  O2-  O422  1  0.34316038  0.59316038  0.88207547  1.0
  O2-  O423  1  0.34316038  0.84316038  0.88207547  1.0
  O2-  O424  1  0.59316038  0.09316038  0.88207547  1.0
  O2-  O425  1  0.59316038  0.34316038  0.88207547  1.0
  O2-  O426  1  0.59316038  0.59316038  0.88207547  1.0
  O2-  O427  1  0.59316038  0.84316038  0.88207547  1.0
  O2-  O428  1  0.84316038  0.09316038  0.88207547  1.0
  O2-  O429  1  0.84316038  0.34316038  0.88207547  1.0
  O2-  O430  1  0.84316038  0.59316038  0.88207547  1.0
  O2-  O431  1  0.84316038  0.84316038  0.88207547  1.0
  O2-  O432  1  0.01061321  0.01061321  0.87264151  1.0
  O2-  O433  1  0.01061321  0.26061321  0.87264151  1.0
  O2-  O434  1  0.01061321  0.51061321  0.87264151  1.0
  O2-  O435  1  0.01061321  0.76061321  0.87264151  1.0
  O2-  O436  1  0.26061321  0.01061321  0.87264151  1.0
  O2-  O437  1  0.26061321  0.26061321  0.87264151  1.0
  O2-  O438  1  0.26061321  0.51061321  0.87264151  1.0
  O2-  O439  1  0.26061321  0.76061321  0.87264151  1.0
  O2-  O440  1  0.51061321  0.01061321  0.87264151  1.0
  O2-  O441  1  0.51061321  0.26061321  0.87264151  1.0
  O2-  O442  1  0.51061321  0.51061321  0.87264151  1.0
  O2-  O443  1  0.51061321  0.76061321  0.87264151  1.0
  O2-  O444  1  0.76061321  0.01061321  0.87264151  1.0
  O2-  O445  1  0.76061321  0.26061321  0.87264151  1.0
  O2-  O446  1  0.76061321  0.51061321  0.87264151  1.0
  O2-  O447  1  0.76061321  0.76061321  0.87264151  1.0
  O2-  O448  1  0.17806604  0.17806604  0.86320755  1.0
  O2-  O449  1  0.17806604  0.42806604  0.86320755  1.0
  O2-  O450  1  0.17806604  0.67806604  0.86320755  1.0
  O2-  O451  1  0.17806604  0.92806604  0.86320755  1.0
  O2-  O452  1  0.42806604  0.17806604  0.86320755  1.0
  O2-  O453  1  0.42806604  0.42806604  0.86320755  1.0
  O2-  O454  1  0.42806604  0.67806604  0.86320755  1.0
  O2-  O455  1  0.42806604  0.92806604  0.86320755  1.0
  O2-  O456  1  0.67806604  0.17806604  0.86320755  1.0
  O2-  O457  1  0.67806604  0.42806604  0.86320755  1.0
  O2-  O458  1  0.67806604  0.67806604  0.86320755  1.0
  O2-  O459  1  0.67806604  0.92806604  0.86320755  1.0
  O2-  O460  1  0.92806604  0.17806604  0.86320755  1.0
  O2-  O461  1  0.92806604  0.42806604  0.86320755  1.0
  O2-  O462  1  0.92806604  0.67806604  0.86320755  1.0
  O2-  O463  1  0.92806604  0.92806604  0.86320755  1.0
  O2-  O464  1  0.09551887  0.09551887  0.85377358  1.0
  O2-  O465  1  0.09551887  0.34551887  0.85377358  1.0
  O2-  O466  1  0.09551887  0.59551887  0.85377358  1.0
  O2-  O467  1  0.09551887  0.84551887  0.85377358  1.0
  O2-  O468  1  0.34551887  0.09551887  0.85377358  1.0
  O2-  O469  1  0.34551887  0.34551887  0.85377358  1.0
  O2-  O470  1  0.34551887  0.59551887  0.85377358  1.0
  O2-  O471  1  0.34551887  0.84551887  0.85377358  1.0
  O2-  O472  1  0.59551887  0.09551887  0.85377358  1.0
  O2-  O473  1  0.59551887  0.34551887  0.85377358  1.0
  O2-  O474  1  0.59551887  0.59551887  0.85377358  1.0
  O2-  O475  1  0.59551887  0.84551887  0.85377358  1.0
  O2-  O476  1  0.84551887  0.09551887  0.85377358  1.0
  O2-  O477  1  0.84551887  0.34551887  0.85377358  1.0
  O2-  O478  1  0.84551887  0.59551887  0.85377358  1.0
  O2-  O479  1  0.84551887  0.84551887  0.85377358  1.0
  O2-  O480  1  0.01297170  0.01297170  0.84433962  1.0
  O2-  O481  1  0.01297170  0.26297170  0.84433962  1.0
  O2-  O482  1  0.01297170  0.51297170  0.84433962  1.0
  O2-  O483  1  0.01297170  0.76297170  0.84433962  1.0
  O2-  O484  1  0.26297170  0.01297170  0.84433962  1.0
  O2-  O485  1  0.26297170  0.26297170  0.84433962  1.0
  O2-  O486  1  0.26297170  0.51297170  0.84433962  1.0
  O2-  O487  1  0.26297170  0.76297170  0.84433962  1.0
  O2-  O488  1  0.51297170  0.01297170  0.84433962  1.0
  O2-  O489  1  0.51297170  0.26297170  0.84433962  1.0
  O2-  O490  1  0.51297170  0.51297170  0.84433962  1.0
  O2-  O491  1  0.51297170  0.76297170  0.84433962  1.0
  O2-  O492  1  0.76297170  0.01297170  0.84433962  1.0
  O2-  O493  1  0.76297170  0.26297170  0.84433962  1.0
  O2-  O494  1  0.76297170  0.51297170  0.84433962  1.0
  O2-  O495  1  0.76297170  0.76297170  0.84433962  1.0
  O2-  O496  1  0.18042453  0.18042453  0.83490566  1.0
  O2-  O497  1  0.18042453  0.43042453  0.83490566  1.0
  O2-  O498  1  0.18042453  0.68042453  0.83490566  1.0
  O2-  O499  1  0.18042453  0.93042453  0.83490566  1.0
  O2-  O500  1  0.43042453  0.18042453  0.83490566  1.0
  O2-  O501  1  0.43042453  0.43042453  0.83490566  1.0
  O2-  O502  1  0.43042453  0.68042453  0.83490566  1.0
  O2-  O503  1  0.43042453  0.93042453  0.83490566  1.0
  O2-  O504  1  0.68042453  0.18042453  0.83490566  1.0
  O2-  O505  1  0.68042453  0.43042453  0.83490566  1.0
  O2-  O506  1  0.68042453  0.68042453  0.83490566  1.0
  O2-  O507  1  0.68042453  0.93042453  0.83490566  1.0
  O2-  O508  1  0.93042453  0.18042453  0.83490566  1.0
  O2-  O509  1  0.93042453  0.43042453  0.83490566  1.0
  O2-  O510  1  0.93042453  0.68042453  0.83490566  1.0
  O2-  O511  1  0.93042453  0.93042453  0.83490566  1.0
  O2-  O512  1  0.09787736  0.09787736  0.82547170  1.0
  O2-  O513  1  0.09787736  0.34787736  0.82547170  1.0
  O2-  O514  1  0.09787736  0.59787736  0.82547170  1.0
  O2-  O515  1  0.09787736  0.84787736  0.82547170  1.0
  O2-  O516  1  0.34787736  0.09787736  0.82547170  1.0
  O2-  O517  1  0.34787736  0.34787736  0.82547170  1.0
  O2-  O518  1  0.34787736  0.59787736  0.82547170  1.0
  O2-  O519  1  0.34787736  0.84787736  0.82547170  1.0
  O2-  O520  1  0.59787736  0.09787736  0.82547170  1.0
  O2-  O521  1  0.59787736  0.34787736  0.82547170  1.0
  O2-  O522  1  0.59787736  0.59787736  0.82547170  1.0
  O2-  O523  1  0.59787736  0.84787736  0.82547170  1.0
  O2-  O524  1  0.84787736  0.09787736  0.82547170  1.0
  O2-  O525  1  0.84787736  0.34787736  0.82547170  1.0
  O2-  O526  1  0.84787736  0.59787736  0.82547170  1.0
  O2-  O527  1  0.84787736  0.84787736  0.82547170  1.0
  O2-  O528  1  0.01533019  0.01533019  0.81603774  1.0
  O2-  O529  1  0.01533019  0.26533019  0.81603774  1.0
  O2-  O530  1  0.01533019  0.51533019  0.81603774  1.0
  O2-  O531  1  0.01533019  0.76533019  0.81603774  1.0
  O2-  O532  1  0.26533019  0.01533019  0.81603774  1.0
  O2-  O533  1  0.26533019  0.26533019  0.81603774  1.0
  O2-  O534  1  0.26533019  0.51533019  0.81603774  1.0
  O2-  O535  1  0.26533019  0.76533019  0.81603774  1.0
  O2-  O536  1  0.51533019  0.01533019  0.81603774  1.0
  O2-  O537  1  0.51533019  0.26533019  0.81603774  1.0
  O2-  O538  1  0.51533019  0.51533019  0.81603774  1.0
  O2-  O539  1  0.51533019  0.76533019  0.81603774  1.0
  O2-  O540  1  0.76533019  0.01533019  0.81603774  1.0
  O2-  O541  1  0.76533019  0.26533019  0.81603774  1.0
  O2-  O542  1  0.76533019  0.51533019  0.81603774  1.0
  O2-  O543  1  0.76533019  0.76533019  0.81603774  1.0
  O2-  O544  1  0.18278302  0.18278302  0.80660377  1.0
  O2-  O545  1  0.18278302  0.43278302  0.80660377  1.0
  O2-  O546  1  0.18278302  0.68278302  0.80660377  1.0
  O2-  O547  1  0.18278302  0.93278302  0.80660377  1.0
  O2-  O548  1  0.43278302  0.18278302  0.80660377  1.0
  O2-  O549  1  0.43278302  0.43278302  0.80660377  1.0
  O2-  O550  1  0.43278302  0.68278302  0.80660377  1.0
  O2-  O551  1  0.43278302  0.93278302  0.80660377  1.0
  O2-  O552  1  0.68278302  0.18278302  0.80660377  1.0
  O2-  O553  1  0.68278302  0.43278302  0.80660377  1.0
  O2-  O554  1  0.68278302  0.68278302  0.80660377  1.0
  O2-  O555  1  0.68278302  0.93278302  0.80660377  1.0
  O2-  O556  1  0.93278302  0.18278302  0.80660377  1.0
  O2-  O557  1  0.93278302  0.43278302  0.80660377  1.0
  O2-  O558  1  0.93278302  0.68278302  0.80660377  1.0
  O2-  O559  1  0.93278302  0.93278302  0.80660377  1.0
  O2-  O560  1  0.10023585  0.10023585  0.79716981  1.0
  O2-  O561  1  0.10023585  0.35023585  0.79716981  1.0
  O2-  O562  1  0.10023585  0.60023585  0.79716981  1.0
  O2-  O563  1  0.10023585  0.85023585  0.79716981  1.0
  O2-  O564  1  0.35023585  0.10023585  0.79716981  1.0
  O2-  O565  1  0.35023585  0.35023585  0.79716981  1.0
  O2-  O566  1  0.35023585  0.60023585  0.79716981  1.0
  O2-  O567  1  0.35023585  0.85023585  0.79716981  1.0
  O2-  O568  1  0.60023585  0.10023585  0.79716981  1.0
  O2-  O569  1  0.60023585  0.35023585  0.79716981  1.0
  O2-  O570  1  0.60023585  0.60023585  0.79716981  1.0
  O2-  O571  1  0.60023585  0.85023585  0.79716981  1.0
  O2-  O572  1  0.85023585  0.10023585  0.79716981  1.0
  O2-  O573  1  0.85023585  0.35023585  0.79716981  1.0
  O2-  O574  1  0.85023585  0.60023585  0.79716981  1.0
  O2-  O575  1  0.85023585  0.85023585  0.79716981  1.0
  O2-  O576  1  0.01768868  0.01768868  0.78773585  1.0
  O2-  O577  1  0.01768868  0.26768868  0.78773585  1.0
  O2-  O578  1  0.01768868  0.51768868  0.78773585  1.0
  O2-  O579  1  0.01768868  0.76768868  0.78773585  1.0
  O2-  O580  1  0.26768868  0.01768868  0.78773585  1.0
  O2-  O581  1  0.26768868  0.26768868  0.78773585  1.0
  O2-  O582  1  0.26768868  0.51768868  0.78773585  1.0
  O2-  O583  1  0.26768868  0.76768868  0.78773585  1.0
  O2-  O584  1  0.51768868  0.01768868  0.78773585  1.0
  O2-  O585  1  0.51768868  0.26768868  0.78773585  1.0
  O2-  O586  1  0.51768868  0.51768868  0.78773585  1.0
  O2-  O587  1  0.51768868  0.76768868  0.78773585  1.0
  O2-  O588  1  0.76768868  0.01768868  0.78773585  1.0
  O2-  O589  1  0.76768868  0.26768868  0.78773585  1.0
  O2-  O590  1  0.76768868  0.51768868  0.78773585  1.0
  O2-  O591  1  0.76768868  0.76768868  0.78773585  1.0
  O2-  O592  1  0.18514151  0.18514151  0.77830189  1.0
  O2-  O593  1  0.18514151  0.43514151  0.77830189  1.0
  O2-  O594  1  0.18514151  0.68514151  0.77830189  1.0
  O2-  O595  1  0.18514151  0.93514151  0.77830189  1.0
  O2-  O596  1  0.43514151  0.18514151  0.77830189  1.0
  O2-  O597  1  0.43514151  0.43514151  0.77830189  1.0
  O2-  O598  1  0.43514151  0.68514151  0.77830189  1.0
  O2-  O599  1  0.43514151  0.93514151  0.77830189  1.0
  O2-  O600  1  0.68514151  0.18514151  0.77830189  1.0
  O2-  O601  1  0.68514151  0.43514151  0.77830189  1.0
  O2-  O602  1  0.68514151  0.68514151  0.77830189  1.0
  O2-  O603  1  0.68514151  0.93514151  0.77830189  1.0
  O2-  O604  1  0.93514151  0.18514151  0.77830189  1.0
  O2-  O605  1  0.93514151  0.43514151  0.77830189  1.0
  O2-  O606  1  0.93514151  0.68514151  0.77830189  1.0
  O2-  O607  1  0.93514151  0.93514151  0.77830189  1.0
  O2-  O608  1  0.10259434  0.10259434  0.76886792  1.0
  O2-  O609  1  0.10259434  0.35259434  0.76886792  1.0
  O2-  O610  1  0.10259434  0.60259434  0.76886792  1.0
  O2-  O611  1  0.10259434  0.85259434  0.76886792  1.0
  O2-  O612  1  0.35259434  0.10259434  0.76886792  1.0
  O2-  O613  1  0.35259434  0.35259434  0.76886792  1.0
  O2-  O614  1  0.35259434  0.60259434  0.76886792  1.0
  O2-  O615  1  0.35259434  0.85259434  0.76886792  1.0
  O2-  O616  1  0.60259434  0.10259434  0.76886792  1.0
  O2-  O617  1  0.60259434  0.35259434  0.76886792  1.0
  O2-  O618  1  0.60259434  0.60259434  0.76886792  1.0
  O2-  O619  1  0.60259434  0.85259434  0.76886792  1.0
  O2-  O620  1  0.85259434  0.10259434  0.76886792  1.0
  O2-  O621  1  0.85259434  0.35259434  0.76886792  1.0
  O2-  O622  1  0.85259434  0.60259434  0.76886792  1.0
  O2-  O623  1  0.85259434  0.85259434  0.76886792  1.0
  O2-  O624  1  0.02004717  0.02004717  0.75943396  1.0
  O2-  O625  1  0.02004717  0.27004717  0.75943396  1.0
  O2-  O626  1  0.02004717  0.52004717  0.75943396  1.0
  O2-  O627  1  0.02004717  0.77004717  0.75943396  1.0
  O2-  O628  1  0.27004717  0.02004717  0.75943396  1.0
  O2-  O629  1  0.27004717  0.27004717  0.75943396  1.0
  O2-  O630  1  0.27004717  0.52004717  0.75943396  1.0
  O2-  O631  1  0.27004717  0.77004717  0.75943396  1.0
  O2-  O632  1  0.52004717  0.02004717  0.75943396  1.0
  O2-  O633  1  0.52004717  0.27004717  0.75943396  1.0
  O2-  O634  1  0.52004717  0.52004717  0.75943396  1.0
  O2-  O635  1  0.52004717  0.77004717  0.75943396  1.0
  O2-  O636  1  0.77004717  0.02004717  0.75943396  1.0
  O2-  O637  1  0.77004717  0.27004717  0.75943396  1.0
  O2-  O638  1  0.77004717  0.52004717  0.75943396  1.0
  O2-  O639  1  0.77004717  0.77004717  0.75943396  1.0
  O2-  O640  1  0.18750000  0.18750000  0.75000000  1.0
  O2-  O641  1  0.18750000  0.43750000  0.75000000  1.0
  O2-  O642  1  0.18750000  0.68750000  0.75000000  1.0
  O2-  O643  1  0.18750000  0.93750000  0.75000000  1.0
  O2-  O644  1  0.43750000  0.18750000  0.75000000  1.0
  O2-  O645  1  0.43750000  0.43750000  0.75000000  1.0
  O2-  O646  1  0.43750000  0.68750000  0.75000000  1.0
  O2-  O647  1  0.43750000  0.93750000  0.75000000  1.0
  O2-  O648  1  0.68750000  0.18750000  0.75000000  1.0
  O2-  O649  1  0.68750000  0.43750000  0.75000000  1.0
  O2-  O650  1  0.68750000  0.68750000  0.75000000  1.0
  O2-  O651  1  0.68750000  0.93750000  0.75000000  1.0
  O2-  O652  1  0.93750000  0.18750000  0.75000000  1.0
  O2-  O653  1  0.93750000  0.43750000  0.75000000  1.0
  O2-  O654  1  0.93750000  0.68750000  0.75000000  1.0
  O2-  O655  1  0.93750000  0.93750000  0.75000000  1.0
  O2-  O656  1  0.10495283  0.10495283  0.74056604  1.0
  O2-  O657  1  0.10495283  0.35495283  0.74056604  1.0
  O2-  O658  1  0.10495283  0.60495283  0.74056604  1.0
  O2-  O659  1  0.10495283  0.85495283  0.74056604  1.0
  O2-  O660  1  0.35495283  0.10495283  0.74056604  1.0
  O2-  O661  1  0.35495283  0.35495283  0.74056604  1.0
  O2-  O662  1  0.35495283  0.60495283  0.74056604  1.0
  O2-  O663  1  0.35495283  0.85495283  0.74056604  1.0
  O2-  O664  1  0.60495283  0.10495283  0.74056604  1.0
  O2-  O665  1  0.60495283  0.35495283  0.74056604  1.0
  O2-  O666  1  0.60495283  0.60495283  0.74056604  1.0
  O2-  O667  1  0.60495283  0.85495283  0.74056604  1.0
  O2-  O668  1  0.85495283  0.10495283  0.74056604  1.0
  O2-  O669  1  0.85495283  0.35495283  0.74056604  1.0
  O2-  O670  1  0.85495283  0.60495283  0.74056604  1.0
  O2-  O671  1  0.85495283  0.85495283  0.74056604  1.0
